geometry optimzed in LAMMPS
_audit_creation_date              2020-12-01 
_audit_creation_method            'lammps2cif' 
_symmetry_space_group_name_H-M    'P1' 
_symmetry_Int_Tables_number       1 
_symmetry_cell_setting            triclinic 
loop_ 
_symmetry_equiv_pos_as_xyz 
  x,y,z 
_cell_length_a                    85.93496597 
_cell_length_b                    86.23453643410366 
_cell_length_c                    46.06041753840092 
_cell_angle_alpha                 89.9034937716226 
_cell_angle_beta                  90.3063948422691 
_cell_angle_gamma                 89.43647682131704 
loop_ 
_atom_site_label 
_atom_site_type_symbol 
_atom_site_fract_x 
_atom_site_fract_y 
_atom_site_fract_z 
_atom_site_charge 
O1          O  0.84339023  0.30763836  0.06298808    -0.56800
C2          C  0.85077008  0.34959544  0.09379615     0.75900
O3          O  0.83229222  0.35346584  0.01265150    -0.57900
C4          C  0.83392783  0.30017020  0.04730514     0.75800
C5          C  0.80183359  0.33636307  0.07694024     0.78200
Cd6        Cd  0.83232331  0.33347172  0.05190282     1.37500
O7          O  0.85400553  0.33570868  0.08704645    -0.56800
O8          O  0.81396053  0.33342509  0.09162387    -0.55600
C9          C  0.84405000  0.34785174  0.99983963     0.78200
O10         O  0.80355317  0.33815213  0.04979180    -0.58000
O11         O  0.83941119  0.35594030  0.08074101    -0.56400
O12         O  0.82396203  0.30808244  0.03315463    -0.56400
O13         O  0.84945376  0.33522448  0.00973682    -0.55600
O14         O  0.65176569  0.33929444  0.15865036    -0.56800
C15         C  0.67172893  0.30345471  0.19759312     0.75900
O16         O  0.70244788  0.33994271  0.19633310    -0.57900
C17         C  0.65587389  0.35247944  0.14948634     0.75800
C18         C  0.66132717  0.35089966  0.24462121     0.78200
Cd19       Cd  0.67361805  0.33653643  0.19320322     1.37500
O20         O  0.66426352  0.31113319  0.17864496    -0.56800
O21         O  0.65404127  0.34082899  0.23026275    -0.55600
C22         C  0.70418501  0.33942170  0.16901123     0.78200
O23         O  0.67488927  0.35415473  0.23602349    -0.58000
O24         O  0.68001633  0.31106465  0.21520970    -0.56400
O25         O  0.66765191  0.35847647  0.16145446    -0.56400
O26         O  0.69205189  0.33769007  0.15386832    -0.55600
O27         O  0.89045014  0.58646822  0.21665068    -0.56800
C28         C  0.94605977  0.58151017  0.18269724     0.75900
O29         O  0.91051382  0.55881548  0.22607114    -0.57900
C30         C  0.89766161  0.59636278  0.23165570     0.75800
C31         C  0.89772577  0.58930606  0.13500077     0.78200
Cd32       Cd  0.91284537  0.57833932  0.18770576     1.37500
O33         O  0.93799891  0.59081347  0.19779394    -0.56800
O34         O  0.91061370  0.59451182  0.14367091    -0.55600
C35         C  0.91074953  0.54711448  0.20965985     0.78200
O36         O  0.89191720  0.57853787  0.14998279    -0.58000
O37         O  0.93879264  0.57087026  0.16967017    -0.56400
O38         O  0.91191705  0.59826289  0.22596841    -0.56400
O39         O  0.91182872  0.54969735  0.18266877    -0.55600
O40         O  0.91105934  0.39224228  0.26556900    -0.56800
C41         C  0.94637016  0.40973576  0.30999782     0.75900
O42         O  0.90885335  0.44155592  0.30938864    -0.57900
C43         C  0.89872199  0.39741608  0.25382046     0.75800
C44         C  0.89670207  0.40076401  0.35079220     0.78200
Cd45       Cd  0.91321927  0.41317850  0.30162464     1.37500
O46         O  0.93921187  0.40260987  0.29010190    -0.56800
O47         O  0.90841318  0.39413861  0.33974444    -0.55600
C48         C  0.91210676  0.44506172  0.28339738     0.78200
O49         O  0.89254460  0.41357016  0.33960816    -0.58000
O50         O  0.93819784  0.41811261  0.32665054    -0.56400
O51         O  0.89285674  0.40959181  0.26460701    -0.56400
O52         O  0.91590065  0.43402919  0.26679578    -0.55600
O53         O  0.58804420  0.60096809  0.01875236    -0.56800
C54         C  0.55487153  0.58203342  0.05995010     0.75900
O55         O  0.58940050  0.55220256  0.06556848    -0.57900
C56         C  0.60187850  0.59827042  0.01075594     0.75800
C57         C  0.60276299  0.59405511  0.10733801     0.78200
Cd58       Cd  0.58817586  0.58073068  0.05664425     1.37500
O59         O  0.56215675  0.58873434  0.03980939    -0.56800
O60         O  0.59119545  0.60031904  0.09482103    -0.55600
C61         C  0.59205846  0.54876435  0.03933902     0.78200
O62         O  0.60757036  0.58133565  0.09691330    -0.58000
O63         O  0.56297055  0.57507479  0.07901190    -0.56400
O64         O  0.60937453  0.58785532  0.02444390    -0.56400
O65         O  0.59326004  0.55994310  0.02180498    -0.55600
O66         O  0.56599486  0.40407249  0.45474814    -0.56800
C67         C  0.60729366  0.39854478  0.48711897     0.75900
O68         O  0.61280551  0.41416808  0.40673993    -0.57900
C69         C  0.55822071  0.41093920  0.43505608     0.75800
C70         C  0.59168241  0.44741792  0.46226116     0.78200
Cd71       Cd  0.59118388  0.41569884  0.44234877     1.37500
O72         O  0.59409600  0.39439845  0.47783183    -0.56800
O73         O  0.59527550  0.44416597  0.43629433    -0.55600
C74         C  0.60658678  0.40371944  0.39148256     0.78200
O75         O  0.58767195  0.43624278  0.47818731    -0.58000
O76         O  0.61323087  0.41025459  0.47514500    -0.56400
O77         O  0.56564941  0.42000077  0.41859382    -0.56400
O78         O  0.59309964  0.39959234  0.39870353    -0.55600
O79         O  0.85243608  0.65836363  0.39865623    -0.56800
C80         C  0.83427531  0.69291391  0.44419061     0.75900
O81         O  0.80304376  0.65881946  0.44192373    -0.57900
C82         C  0.84777342  0.64558990  0.38835535     0.75800
C83         C  0.84641206  0.64269873  0.48320342     0.78200
Cd84       Cd  0.83195261  0.65982190  0.43585806     1.37500
O85         O  0.84101581  0.68603535  0.42347078    -0.56800
O86         O  0.85366837  0.65222799  0.46764752    -0.55600
C87         C  0.80019694  0.65667606  0.41518674     0.78200
O88         O  0.83204111  0.64122739  0.47777453    -0.58000
O89         O  0.82655730  0.68455335  0.46134265    -0.56400
O90         O  0.83612538  0.63946004  0.40032110    -0.56400
O91         O  0.81181969  0.65592367  0.39860557    -0.55600
O92         O  0.64655323  0.66025710  0.34339729    -0.56800
C93         C  0.66597040  0.69453168  0.29898125     0.75900
O94         O  0.69656149  0.65434360  0.30485606    -0.57900
C95         C  0.65050526  0.64699514  0.35277984     0.75800
C96         C  0.65584909  0.64644359  0.25704153     0.78200
Cd97       Cd  0.66832441  0.66165814  0.30788927     1.37500
O98         O  0.65771191  0.68747766  0.31730958    -0.56800
O99         O  0.64967022  0.65843032  0.26786139    -0.55600
C100        C  0.69982426  0.65884548  0.33035286     0.78200
O101        O  0.66843222  0.64176759  0.26862728    -0.58000
O102        O  0.67534286  0.68637533  0.28419061    -0.56400
O103        O  0.66221878  0.64067982  0.34110955    -0.56400
O104        O  0.68879630  0.66481919  0.34468188    -0.55600
O105        O  0.84004698  0.18307541  0.07207197    -0.56800
C106        C  0.84786315  0.14084164  0.10153130     0.75900
O107        O  0.80131931  0.15407931  0.05332988    -0.57900
C108        C  0.83194702  0.19075962  0.05396885     0.75800
C109        C  0.84253258  0.14299540  0.00684030     0.78200
Cd110      Cd  0.83005035  0.15741334  0.05833868     1.37500
O111        O  0.85164825  0.15433551  0.09352265    -0.56800
O112        O  0.84857949  0.15474253  0.01849229    -0.55600
C113        C  0.79901542  0.15456008  0.08049675     0.78200
O114        O  0.83001280  0.13819863  0.01789468    -0.58000
O115        O  0.83613121  0.13497117  0.08923906    -0.56400
O116        O  0.82298490  0.18308373  0.03764491    -0.56400
O117        O  0.81082586  0.15636219  0.09651553    -0.55600
O118        O  0.66033315  0.18714051  0.17417262    -0.56800
C119        C  0.65038159  0.14512274  0.14733558     0.75900
O120        O  0.69737982  0.15451629  0.19228360    -0.57900
C121        C  0.66836104  0.19435645  0.19275038     0.75800
C122        C  0.65651503  0.14779468  0.24118370     0.78200
Cd123      Cd  0.66906637  0.16108157  0.18893864     1.37500
O124        O  0.64729339  0.15899570  0.15433862    -0.56800
O125        O  0.64981431  0.15870488  0.22753475    -0.55600
C126        C  0.69963868  0.15619963  0.16527580     0.78200
O127        O  0.66962941  0.14338840  0.23169981    -0.58000
O128        O  0.66177040  0.13862341  0.16006417    -0.56400
O129        O  0.67657748  0.18622349  0.20996732    -0.56400
O130        O  0.68799710  0.16012276  0.15001470    -0.55600
O131        O  0.93774142  0.08735990  0.29742080    -0.56800
C132        C  0.89774319  0.09290095  0.26086807     0.75900
O133        O  0.91259515  0.05643007  0.27315024    -0.57900
C134        C  0.94511007  0.07939628  0.31610020     0.75800
C135        C  0.89589692  0.09037711  0.35793373     0.78200
Cd136      Cd  0.91200449  0.07704094  0.30885870     1.37500
O137        O  0.89145894  0.08136060  0.27285024    -0.56800
O138        O  0.90714739  0.09698709  0.34570731    -0.55600
C139        C  0.91009616  0.04527589  0.29024538     0.78200
O140        O  0.89202575  0.07731784  0.34788480    -0.58000
O141        O  0.91047605  0.09748421  0.27159375    -0.56400
O142        O  0.93717499  0.07051290  0.33198233    -0.56400
O143        O  0.90846680  0.04859971  0.31687308    -0.55600
O144        O  0.90927377  0.88949237  0.22831109    -0.56800
C145        C  0.94581257  0.91025528  0.19195485     0.75900
O146        O  0.89237532  0.91278977  0.15598683    -0.57900
C147        C  0.89638431  0.89418649  0.23840674     0.75800
C148        C  0.91002853  0.94322935  0.21696452     0.78200
Cd149      Cd  0.91237743  0.91198205  0.19548837     1.37500
O150        O  0.93844867  0.90271093  0.21096502    -0.56800
O151        O  0.91123002  0.93160734  0.23357025    -0.55600
C152        C  0.89737237  0.90073567  0.14332056     0.78200
O153        O  0.90969207  0.94054429  0.18991641    -0.58000
O154        O  0.93774983  0.91817320  0.17418327    -0.56400
O155        O  0.89085687  0.90667756  0.22809015    -0.56400
O156        O  0.90947533  0.89445984  0.15392491    -0.55600
O157        O  0.56128046  0.09452301  0.45414354    -0.56800
C158        C  0.60209141  0.09943305  0.48582746     0.75900
O159        O  0.58495673  0.06293323  0.47611700    -0.57900
C160        C  0.55327859  0.08746372  0.43532966     0.75800
C161        C  0.60273834  0.09512492  0.38903735     0.78200
Cd162      Cd  0.58660427  0.08346739  0.43971378     1.37500
O163        O  0.59033584  0.10532778  0.47319664    -0.56800
O164        O  0.59072726  0.10156879  0.39932197    -0.55600
C165        C  0.58804107  0.05176832  0.45933341     0.78200
O166        O  0.60720582  0.08270982  0.40130765    -0.58000
O167        O  0.60700254  0.08655497  0.47637969    -0.56400
O168        O  0.56065699  0.07879576  0.41790741    -0.56400
O169        O  0.59030664  0.05509555  0.43286230    -0.55600
O170        O  0.56156425  0.90837682  0.03986639    -0.56800
C171        C  0.60128017  0.90085206  0.00416095     0.75900
O172        O  0.58970973  0.94601416  0.05994511    -0.57900
C173        C  0.55488595  0.91467631  0.06126442     0.75800
C174        C  0.60529220  0.90330472  0.09880970     0.78200
Cd175      Cd  0.58772422  0.91741847  0.05174449     1.37500
O176        O  0.58797253  0.89719143  0.01347192    -0.56800
O177        O  0.59362993  0.89702370  0.08711460    -0.55600
C178        C  0.58885278  0.94950372  0.03323360     0.78200
O179        O  0.60871558  0.91671747  0.08979572    -0.58000
O180        O  0.60818036  0.91172623  0.01720027    -0.56400
O181        O  0.56341473  0.92207527  0.07880106    -0.56400
O182        O  0.58773646  0.93834373  0.01566519    -0.55600
O183        O  0.83858670  0.80923584  0.43197097    -0.56800
C184        C  0.84539438  0.84746509  0.39577638     0.75900
O185        O  0.79964695  0.83661740  0.44826300    -0.57900
C186        C  0.83069856  0.80189250  0.45039648     0.75800
C187        C  0.84265108  0.85081706  0.49234421     0.78200
Cd188      Cd  0.82858117  0.83499676  0.44351526     1.37500
O189        O  0.84734780  0.83340935  0.40309701    -0.56800
O190        O  0.84990059  0.84109770  0.47694789    -0.55600
C191        C  0.79733675  0.84010585  0.42184391     0.78200
O192        O  0.82848974  0.85317108  0.48591281    -0.58000
O193        O  0.83611044  0.85553790  0.41090040    -0.56400
O194        O  0.82165729  0.80982082  0.46623023    -0.56400
O195        O  0.80925213  0.84147531  0.40624099    -0.55600
O196        O  0.65832091  0.81092928  0.31361149    -0.56800
C197        C  0.64998459  0.85242136  0.34533851     0.75900
O198        O  0.69730950  0.84234463  0.30218305    -0.57900
C199        C  0.66695781  0.80357292  0.29612589     0.75800
C200        C  0.65869509  0.85134933  0.25000746     0.78200
Cd201      Cd  0.66897287  0.83658906  0.30325709     1.37500
O202        O  0.64605880  0.83934338  0.33545846    -0.56800
O203        O  0.65237467  0.83935989  0.26014095    -0.55600
C204        C  0.69965364  0.83848805  0.32843498     0.78200
O205        O  0.67033507  0.85643547  0.26382942    -0.58000
O206        O  0.66232793  0.85816838  0.33539312    -0.56400
O207        O  0.67644386  0.81147627  0.28142100    -0.56400
O208        O  0.68807464  0.83351006  0.34228347    -0.55600
O209        O  0.06399608  0.40674600  0.29784697    -0.56800
C210        C  0.10142408  0.39881910  0.26626335     0.75900
O211        O  0.09944798  0.43815209  0.28176891    -0.57900
C212        C  0.05588272  0.41482924  0.31503231     0.75800
C213        C  0.10373589  0.40420268  0.36396673     0.78200
Cd214      Cd  0.08935089  0.41745168  0.31263733     1.37500
O215        O  0.08951961  0.40739176  0.26293269    -0.56800
O216        O  0.09079735  0.39962660  0.35419212    -0.55600
C217        C  0.09539167  0.44929349  0.29783071     0.78200
O218        O  0.10996377  0.41539267  0.35068426    -0.58000
O219        O  0.10785439  0.39886851  0.29102830    -0.56400
O220        O  0.06318691  0.42393562  0.33159406    -0.56400
O221        O  0.08936787  0.44581848  0.32193845    -0.55600
O222        O  0.08989192  0.60240671  0.23051331    -0.56800
C223        C  0.05560788  0.58238641  0.18442674     0.75900
O224        O  0.10906413  0.57966349  0.15639797    -0.57900
C225        C  0.10250489  0.59788556  0.24214656     0.75800
C226        C  0.09043778  0.54929240  0.21662572     0.78200
Cd227      Cd  0.08860332  0.58052183  0.19509819     1.37500
O228        O  0.06256151  0.59188432  0.20075550    -0.56800
O229        O  0.08347997  0.56000057  0.23021770    -0.55600
C230        C  0.10377073  0.59142058  0.14302164     0.78200
O231        O  0.09644795  0.55285686  0.19247644    -0.58000
O232        O  0.06391460  0.57204768  0.17243588    -0.56400
O233        O  0.10877789  0.58589230  0.23149614    -0.56400
O234        O  0.09162368  0.59761032  0.15326482    -0.55600
O235        O  0.15737119  0.30864395  0.07845120    -0.56800
C236        C  0.14822251  0.34489609  0.11261144     0.75900
O237        O  0.19639737  0.33177416  0.06452323    -0.57900
C238        C  0.16505955  0.30133281  0.05948302     0.75800
C239        C  0.15530904  0.34993319  0.01538883     0.78200
Cd240      Cd  0.16759946  0.33428297  0.06627845     1.37500
O241        O  0.15744473  0.33348943  0.11578740    -0.56800
O242        O  0.14937710  0.33771191  0.02542664    -0.55600
C243        C  0.19902343  0.34030931  0.08626570     0.78200
O244        O  0.16759451  0.35461997  0.02776952    -0.58000
O245        O  0.14747609  0.35103782  0.08768892    -0.56400
O246        O  0.17374286  0.30925123  0.04321228    -0.56400
O247        O  0.18733224  0.34688781  0.09748796    -0.55600
O248        O  0.34219101  0.31171731  0.19261756    -0.56800
C249        C  0.34798366  0.35144355  0.15110594     0.75900
O250        O  0.30180124  0.34489288  0.19675402    -0.57900
C251        C  0.33220630  0.30461437  0.20758876     0.75800
C252        C  0.34131066  0.35213355  0.24900602     0.78200
Cd253      Cd  0.32994037  0.33743385  0.19657065     1.37500
O254        O  0.35024913  0.33751134  0.15874940    -0.56800
O255        O  0.32979053  0.35790916  0.23542292    -0.55600
C256        C  0.29899684  0.33902948  0.17206741     0.78200
O257        O  0.34695595  0.33970637  0.23892612    -0.58000
O258        O  0.33775778  0.35898739  0.16490407    -0.56400
O259        O  0.32130734  0.31272443  0.21836324    -0.56400
O260        O  0.31025200  0.33237854  0.15950083    -0.55600
O261        O  0.16185962  0.68568395  0.43166864    -0.56800
C262        C  0.15250770  0.64503643  0.40132699     0.75900
O263        O  0.19959494  0.65646629  0.45121636    -0.57900
C264        C  0.16871641  0.69292373  0.45176424     0.75800
C265        C  0.15753325  0.64397872  0.49545671     0.78200
Cd266      Cd  0.17069023  0.65964097  0.44579092     1.37500
O267        O  0.14993402  0.65900998  0.40837742    -0.56800
O268        O  0.15074311  0.65513491  0.48270139    -0.55600
C269        C  0.20204435  0.65600157  0.42411726     0.78200
O270        O  0.17095904  0.64035630  0.48635404    -0.58000
O271        O  0.16324463  0.63794535  0.41496155    -0.56400
O272        O  0.17631906  0.68479786  0.46995032    -0.56400
O273        O  0.19022784  0.65698693  0.40780690    -0.55600
O274        O  0.34498121  0.68405233  0.32643189    -0.56800
C275        C  0.34919002  0.64304274  0.36302083     0.75900
O276        O  0.30444381  0.65426943  0.31453743    -0.57900
C277        C  0.33668650  0.69175734  0.30868825     0.75800
C278        C  0.34510550  0.64316912  0.26658093     0.78200
Cd279      Cd  0.33296159  0.65897714  0.31715345     1.37500
O280        O  0.35351221  0.65620518  0.35417428    -0.56800
O281        O  0.35178915  0.65460836  0.27808790    -0.55600
C282        C  0.30198964  0.65829994  0.34061358     0.78200
O283        O  0.33217513  0.63932875  0.27736219    -0.58000
O284        O  0.33783482  0.63698070  0.34989308    -0.56400
O285        O  0.32668979  0.68429589  0.29417323    -0.56400
O286        O  0.31358781  0.66298818  0.35495613    -0.55600
O287        O  0.41210719  0.39162997  0.48302159    -0.56800
C288        C  0.44878824  0.40814865  0.43807528     0.75900
O289        O  0.39566611  0.41454814  0.40764560    -0.57900
C290        C  0.39984062  0.39752176  0.49358409     0.75800
C291        C  0.41522534  0.44381140  0.46717797     0.78200
Cd292      Cd  0.41572254  0.41244946  0.44691236     1.37500
O293        O  0.44150105  0.40081510  0.45744494    -0.56800
O294        O  0.41126957  0.44076973  0.44125646    -0.55600
C295        C  0.39772335  0.40082003  0.39870939     0.78200
O296        O  0.41953007  0.43252160  0.48290484    -0.58000
O297        O  0.44078072  0.41717656  0.42210918    -0.56400
O298        O  0.39495881  0.41004508  0.48239387    -0.56400
O299        O  0.40842133  0.39302823  0.41093720    -0.55600
O300        O  0.43695274  0.58548956  0.04833826    -0.56800
C301        C  0.39522194  0.59379013  0.02452216     0.75900
O302        O  0.41074321  0.54720769  0.07227486    -0.57900
C303        C  0.44534987  0.57774523  0.06582734     0.75800
C304        C  0.39824091  0.58795102  0.11989954     0.78200
Cd305      Cd  0.41183603  0.57585783  0.06681240     1.37500
O306        O  0.40864847  0.59770805  0.03303888    -0.56800
O307        O  0.40948077  0.59430389  0.10713364    -0.55600
C308        C  0.40904720  0.54467627  0.04534517     0.78200
O309        O  0.39354604  0.57531108  0.10920047    -0.58000
O310        O  0.38935278  0.58195230  0.03625902    -0.56400
O311        O  0.43831679  0.56938044  0.08403596    -0.56400
O312        O  0.40797223  0.55641326  0.02901728    -0.55600
O313        O  0.14891209  0.83752519  0.40516795    -0.56800
C314        C  0.16890426  0.80240629  0.44589352     0.75900
O315        O  0.19909952  0.83926230  0.44875912    -0.57900
C316        C  0.15169894  0.85137313  0.39787631     0.75800
C317        C  0.15809391  0.85074272  0.49258890     0.78200
Cd318      Cd  0.17041187  0.83585704  0.44140795     1.37500
O319        O  0.16184200  0.80988677  0.42611256    -0.56800
O320        O  0.15131991  0.83961794  0.48017766    -0.55600
C321        C  0.20209702  0.83919771  0.42186800     0.78200
O322        O  0.17103018  0.85476338  0.48215708    -0.58000
O323        O  0.17650471  0.81032842  0.46408333    -0.56400
O324        O  0.16285379  0.85793794  0.41080623    -0.56400
O325        O  0.19062857  0.83800174  0.40478534    -0.55600
O326        O  0.34558310  0.80755534  0.33087635    -0.56800
C327        C  0.35179743  0.84880002  0.36649390     0.75900
O328        O  0.33385180  0.85348046  0.28231582    -0.57900
C329        C  0.33721044  0.80066606  0.31236320     0.75800
C330        C  0.30348950  0.83543193  0.34443440     0.78200
Cd331      Cd  0.33458592  0.83351244  0.32158943     1.37500
O332        O  0.35575241  0.83536166  0.35809915    -0.56800
O333        O  0.31508265  0.83136441  0.35970746    -0.55600
C334        C  0.34637165  0.84890576  0.27062674     0.78200
O335        O  0.30607886  0.83854330  0.31798522    -0.58000
O336        O  0.34040982  0.85515792  0.35355228    -0.56400
O337        O  0.32771559  0.80895160  0.29788181    -0.56400
O338        O  0.35285110  0.83706344  0.28163902    -0.55600
O339        O  0.40957524  0.89450667  0.03768042    -0.56800
C340        C  0.44556051  0.91292237  0.07338473     0.75900
O341        O  0.41092584  0.94482178  0.07859114    -0.57900
C342        C  0.39640778  0.89870524  0.02788825     0.75800
C343        C  0.39765337  0.90460355  0.12395801     0.78200
Cd344      Cd  0.41211877  0.91621171  0.07188711     1.37500
O345        O  0.43729462  0.90623505  0.05448912    -0.56800
O346        O  0.40936236  0.89822681  0.11242983    -0.55600
C347        C  0.41002678  0.94774489  0.05165803     0.78200
O348        O  0.39273723  0.91702146  0.11227981    -0.58000
O349        O  0.43841495  0.92093907  0.09214392    -0.56400
O350        O  0.39018706  0.91054120  0.03936107    -0.56400
O351        O  0.40968023  0.93625220  0.03475598    -0.55600
O352        O  0.43653416  0.09157768  0.46101798    -0.56800
C353        C  0.39545989  0.09666971  0.49486633     0.75900
O354        O  0.40640643  0.09937144  0.41220172    -0.57900
C355        C  0.44393499  0.08461784  0.44119179     0.75800
C356        C  0.41104269  0.04842462  0.47144635     0.78200
Cd357      Cd  0.41118238  0.07996532  0.45004875     1.37500
O358        O  0.40941735  0.09955109  0.48835536    -0.56800
O359        O  0.41370034  0.05990469  0.48764088    -0.55600
C360        C  0.39483739  0.09302428  0.40032874     0.78200
O361        O  0.40842951  0.05134052  0.44485979    -0.58000
O362        O  0.38874006  0.08615731  0.48052641    -0.56400
O363        O  0.43620860  0.07555562  0.42515011    -0.56400
O364        O  0.39093196  0.07995939  0.41043292    -0.55600
O365        O  0.14684498  0.15860084  0.10270311    -0.56800
C366        C  0.16433648  0.19243194  0.05874379     0.75900
O367        O  0.19685531  0.15661832  0.06279158    -0.57900
C368        C  0.15003539  0.14489933  0.11077511     0.75800
C369        C  0.15616798  0.14329850  0.01565707     0.78200
Cd370      Cd  0.16789554  0.15954020  0.06622117     1.37500
O371        O  0.15588184  0.18482600  0.07592338    -0.56800
O372        O  0.14969687  0.15529287  0.02587205    -0.55600
C373        C  0.19914478  0.15781096  0.08991004     0.78200
O374        O  0.16883462  0.13909981  0.02755475    -0.58000
O375        O  0.17434788  0.18482654  0.04441634    -0.56400
O376        O  0.16106397  0.13804022  0.09783578    -0.56400
O377        O  0.18722307  0.15980626  0.10542721    -0.55600
O378        O  0.35118731  0.16057051  0.16027935    -0.56800
C379        C  0.33237073  0.19547653  0.20358636     0.75900
O380        O  0.30197436  0.15822625  0.20106722    -0.57900
C381        C  0.34759195  0.14705799  0.15211173     0.75800
C382        C  0.34295113  0.14780213  0.24985062     0.78200
Cd383      Cd  0.33061713  0.16236421  0.19741846     1.37500
O384        O  0.34218219  0.18789195  0.18879338    -0.56800
O385        O  0.34964652  0.15884872  0.23714671    -0.55600
C386        C  0.29954743  0.15978453  0.17401715     0.78200
O387        O  0.33012766  0.14353833  0.23899302    -0.58000
O388        O  0.32183351  0.18777262  0.21592218    -0.56400
O389        O  0.33658639  0.14056384  0.16539221    -0.56400
O390        O  0.31126124  0.16259089  0.15848327    -0.55600
O391        O  0.08956891  0.89487813  0.22649396    -0.56800
C392        C  0.05542072  0.91404939  0.18691673     0.75900
O393        O  0.09143728  0.94527083  0.18408366    -0.57900
C394        C  0.10197661  0.89941014  0.23854680     0.75800
C395        C  0.10503144  0.90405683  0.14149907     0.78200
Cd396      Cd  0.08866484  0.91658092  0.19125042     1.37500
O397        O  0.06342204  0.90566001  0.20398301    -0.56800
O398        O  0.09184292  0.89939447  0.14942331    -0.55600
C399        C  0.09098167  0.94815470  0.21105774     0.78200
O400        O  0.11072067  0.91517025  0.15578406    -0.58000
O401        O  0.06278614  0.92344089  0.17104178    -0.56400
O402        O  0.10831705  0.91129859  0.22798408    -0.56400
O403        O  0.08947960  0.93668941  0.22783702    -0.55600
O404        O  0.06213534  0.08937143  0.30025634    -0.56800
C405        C  0.10266891  0.09818166  0.27189856     0.75900
O406        O  0.10763607  0.07790199  0.35495877    -0.57900
C407        C  0.05458309  0.08108569  0.31780812     0.75800
C408        C  0.09113248  0.04876733  0.29069840     0.78200
Cd409      Cd  0.08790142  0.07939758  0.31456270     1.37500
O410        O  0.08995005  0.10256117  0.28311306    -0.56800
O411        O  0.09034921  0.06075949  0.27497032    -0.55600
C412        C  0.10286432  0.09021942  0.36702825     0.78200
O413        O  0.09062293  0.05080322  0.31793601    -0.58000
O414        O  0.10860015  0.08565038  0.28124925    -0.56400
O415        O  0.06240624  0.07213173  0.33417962    -0.56400
O416        O  0.09112146  0.09676959  0.35567970    -0.55600
C417        C  0.09332991  0.98872874  0.22662330     0.21400
C418        C  0.09382730  0.00474226  0.22104097    -0.38500
C419        C  0.09351043  0.01435888  0.24565162     0.20400
C420        C  0.09280409  0.00846573  0.27360528     0.23000
C421        C  0.09232932  0.99251779  0.27914991    -0.39000
C422        C  0.09260261  0.98294438  0.25464263     0.21800
N423        N  0.09303802  0.97709772  0.20713684    -0.32300
C424        C  0.09206844  0.96389599  0.22305241    -0.09800
C425        C  0.09181586  0.96710042  0.25267944    -0.28600
N426        N  0.09216294  0.01994671  0.29323247    -0.45200
C427        C  0.09239706  0.03327409  0.27770460    -0.04500
C428        C  0.09328083  0.03029179  0.24796096    -0.21900
H429        H  0.09420084  0.00937341  0.19920233     0.19900
H430        H  0.09157229  0.98789887  0.30095628     0.18700
H431        H  0.09093662  0.95891261  0.27042162     0.15000
H432        H  0.09341617  0.03865508  0.23041468     0.14900
H433        H  0.09325724  0.97807825  0.18453690     0.33000
H434        H  0.09129932  0.01879015  0.31574255     0.35800
C435        C  0.12534067  0.11103245  0.21253799     0.21400
C436        C  0.13683013  0.10966103  0.19132610    -0.38500
C437        C  0.13682571  0.12132194  0.17027213     0.20400
C438        C  0.12626308  0.13355192  0.17033895     0.23000
C439        C  0.11461619  0.13487444  0.19155535    -0.39000
C440        C  0.11455865  0.12307933  0.21265261     0.21800
N441        N  0.12275054  0.10113625  0.23433217    -0.32300
C442        C  0.11012018  0.10673033  0.24836999    -0.09800
C443        C  0.10466514  0.12047363  0.23565941    -0.28600
N444        N  0.12925948  0.14343155  0.14847939    -0.45200
C445        C  0.14178557  0.13733147  0.13460287    -0.04500
C446        C  0.14671688  0.12350688  0.14740634    -0.21900
H447        H  0.14518634  0.10018572  0.19124423     0.19900
H448        H  0.10625954  0.14434764  0.19163694     0.18700
H449        H  0.09458295  0.12730754  0.24181624     0.15000
H450        H  0.15660359  0.11633861  0.14145552     0.14900
H451        H  0.12889915  0.09087586  0.23877951     0.33000
H452        H  0.12341761  0.15382240  0.14372916     0.35800
C453        C  0.12801325  0.10284978  0.42441013     0.21400
C454        C  0.14152187  0.10344885  0.44185203    -0.38500
C455        C  0.14265283  0.11640922  0.46032627     0.20400
C456        C  0.13118151  0.12778365  0.46120848     0.23000
C457        C  0.11774387  0.12713996  0.44400300    -0.39000
C458        C  0.11663544  0.11429808  0.42566912     0.21800
N459        N  0.12435415  0.09224590  0.40404868    -0.32300
C460        C  0.11060522  0.09714667  0.39238623    -0.09800
C461        C  0.10543981  0.11077381  0.40547272    -0.28600
N462        N  0.13484407  0.13889046  0.48030814    -0.45200
C463        C  0.14874862  0.13467580  0.49195990    -0.04500
C464        C  0.15405211  0.12068213  0.48005782    -0.21900
H465        H  0.15052725  0.09460431  0.44089383     0.19900
H466        H  0.10885424  0.13611272  0.44460225     0.18700
H467        H  0.09515690  0.11755600  0.40006650     0.15000
H468        H  0.16462500  0.11437635  0.48548784     0.14900
H469        H  0.13102601  0.08264416  0.39776505     0.33000
H470        H  0.12811556  0.14864701  0.48550535     0.35800
C471        C  0.25911587  0.15715142  0.15594776     0.21400
C472        C  0.24301332  0.15709820  0.16083698    -0.38500
C473        C  0.23358645  0.15666460  0.13587335     0.20400
C474        C  0.23969655  0.15617955  0.10812758     0.23000
C475        C  0.25580622  0.15623576  0.10323423    -0.39000
C476        C  0.26523155  0.15682156  0.12819682     0.21800
N477        N  0.27053166  0.15802238  0.17597853    -0.32300
C478        C  0.28399323  0.15838609  0.16081581    -0.09800
C479        C  0.28115990  0.15764262  0.13099085    -0.28600
N480        N  0.22824724  0.15627194  0.08805985    -0.45200
C481        C  0.21476714  0.15694178  0.10318569    -0.04500
C482        C  0.21763548  0.15715400  0.13303173    -0.21900
H483        H  0.23817137  0.15763540  0.18246097     0.19900
H484        H  0.26064277  0.15612269  0.08158515     0.18700
H485        H  0.28962692  0.15784446  0.11368183     0.15000
H486        H  0.20917221  0.15784005  0.15031425     0.14900
H487        H  0.26923933  0.15863909  0.19848498     0.33000
H488        H  0.22952228  0.15620503  0.06552065     0.35800
C489        C  0.38332148  0.12049275  0.05331261     0.21400
C490        C  0.38463740  0.13221886  0.07421159    -0.38500
C491        C  0.37221955  0.13345737  0.09368765     0.20400
C492        C  0.35957775  0.12362940  0.09258550     0.23000
C493        C  0.35817965  0.11202803  0.07148780    -0.39000
C494        C  0.37051737  0.11088918  0.05186052     0.21800
N495        N  0.39372345  0.11667769  0.03285607    -0.32300
C496        C  0.38745187  0.10461181  0.01827305    -0.09800
C497        C  0.37294002  0.10071894  0.02931083    -0.28600
N498        N  0.34942114  0.12706610  0.11365770    -0.45200
C499        C  0.35551511  0.13929161  0.12801927    -0.04500
C500        C  0.36972213  0.14365984  0.11621781    -0.21900
H501        H  0.39460566  0.13977597  0.07527484     0.19900
H502        H  0.34825508  0.10440830  0.07052551     0.18700
H503        H  0.36539776  0.09145610  0.02227971     0.15000
H504        H  0.37715968  0.15302836  0.12313299     0.14900
H505        H  0.40460571  0.12213823  0.52929587     0.33000
H506        H  0.33882158  0.12162460  0.11768193     0.35800
C507        C  0.35530933  0.12295106  0.30818365     0.21400
C508        C  0.35545182  0.10959737  0.32581588    -0.38500
C509        C  0.36839680  0.10784397  0.34440411     0.20400
C510        C  0.38018788  0.11865271  0.34538311     0.23000
C511        C  0.38005092  0.13196164  0.32782923    -0.39000
C512        C  0.36720075  0.13365099  0.30918529     0.21800
N513        N  0.34474929  0.12694318  0.28771254    -0.32300
C514        C  0.35006938  0.14017723  0.27544000    -0.09800
C515        C  0.36398384  0.14476324  0.28843160    -0.28600
N516        N  0.39111884  0.11447709  0.36486452    -0.45200
C517        C  0.38636662  0.10088608  0.37648487    -0.04500
C518        C  0.37222448  0.09631453  0.36422892    -0.21900
H519        H  0.34626231  0.10111840  0.32488103     0.19900
H520        H  0.38938017  0.14030121  0.32839663     0.18700
H521        H  0.37109654  0.15458334  0.28268672     0.15000
H522        H  0.36552099  0.08614321  0.36951897     0.14900
H523        H  0.33486454  0.12074296  0.28170154     0.33000
H524        H  0.40114851  0.12062305  0.37021225     0.35800
C525        C  0.40894702  0.98233150  0.00912450     0.21400
C526        C  0.40754012  0.99117581  0.48381751    -0.38500
C527        C  0.40921867  0.00721285  0.48739850     0.20400
C528        C  0.41243262  0.01387093  0.01402597     0.23000
C529        C  0.41356601  0.00497081  0.03952940    -0.39000
C530        C  0.41164739  0.98894920  0.03602686     0.21800
N531        N  0.40778601  0.96687778  0.01148541    -0.32300
C532        C  0.40969476  0.96361791  0.04008766    -0.09800
C533        C  0.41209766  0.97707926  0.05615525    -0.28600
N534        N  0.41304073  0.02930556  0.51189719    -0.45200
C535        C  0.41095657  0.03257140  0.48331378    -0.04500
C536        C  0.40855655  0.01908762  0.46730932    -0.21900
H537        H  0.40547146  0.98599339  0.46277880     0.19900
H538        H  0.41573659  0.01014343  0.06054066     0.18700
H539        H  0.41418230  0.97801227  0.07927778     0.15000
H540        H  0.40652357  0.01812165  0.44417800     0.14900
H541        H  0.40588561  0.95893616  0.49473079     0.33000
H542        H  0.41564586  0.03720471  0.02836738     0.35800
C543        C  0.36326692  0.87247707  0.42591309     0.21400
C544        C  0.36154815  0.88421682  0.44667369    -0.38500
C545        C  0.37335836  0.88496644  0.46765382     0.20400
C546        C  0.38598572  0.87486581  0.46782429     0.23000
C547        C  0.38768494  0.86307231  0.44706883    -0.39000
C548        C  0.37577448  0.86222405  0.42620350     0.21800
N549        N  0.35345419  0.86918138  0.40412637    -0.32300
C550        C  0.35962221  0.85664015  0.39061356    -0.09800
C551        C  0.37356612  0.85193082  0.40368970    -0.28600
N552        N  0.39572465  0.87819745  0.48979929    -0.45200
C553        C  0.38893688  0.89055311  0.00370161    -0.04500
C554        C  0.37523832  0.89500684  0.49055609    -0.21900
H555        H  0.35170106  0.89214305  0.44655782     0.19900
H556        H  0.39749239  0.85510061  0.44726511     0.18700
H557        H  0.38093141  0.84219384  0.39779777     0.15000
H558        H  0.36767476  0.90457139  0.49657427     0.14900
H559        H  0.34296477  0.87487581  0.39919879     0.33000
H560        H  0.40604173  0.87278872  0.99464972     0.35800
C561        C  0.35922281  0.87528936  0.21604924     0.21400
C562        C  0.35961694  0.88912909  0.19986265    -0.38500
C563        C  0.37251800  0.89082117  0.18151857     0.20400
C564        C  0.38408939  0.87958465  0.17965905     0.23000
C565        C  0.38368703  0.86580677  0.19573267    -0.39000
C566        C  0.37083251  0.86411105  0.21391089     0.21800
N567        N  0.34853933  0.87102401  0.23569564    -0.32300
C568        C  0.35350766  0.85710466  0.24614848    -0.09800
C569        C  0.36729610  0.85238538  0.23291190    -0.28600
N570        N  0.39478447  0.88356211  0.16002527    -0.45200
C571        C  0.38999587  0.89735740  0.14892181    -0.04500
C572        C  0.37619506  0.90238267  0.16194526    -0.21900
H573        H  0.35054466  0.89788178  0.20136187     0.19900
H574        H  0.39272618  0.85702222  0.19414440     0.18700
H575        H  0.37413486  0.84204310  0.23743198     0.15000
H576        H  0.36943239  0.91269636  0.15685656     0.14900
H577        H  0.33879743  0.87742346  0.24234011     0.33000
H578        H  0.40443946  0.87696155  0.15368935     0.35800
C579        C  0.12384686  0.88749695  0.30045479     0.21400
C580        C  0.13569715  0.88852633  0.32124071    -0.38500
C581        C  0.13642245  0.87642537  0.34140902     0.20400
C582        C  0.12615990  0.86414779  0.34096120     0.23000
C583        C  0.11412393  0.86319535  0.32024148    -0.39000
C584        C  0.11338070  0.87538363  0.29997268     0.21800
N585        N  0.12108220  0.89737653  0.27856375    -0.32300
C586        C  0.10874381  0.89162191  0.26395492    -0.09800
C587        C  0.10350379  0.87792870  0.27664842    -0.28600
N588        N  0.12999466  0.85370402  0.36159902    -0.45200
C589        C  0.14275911  0.85947518  0.37510450    -0.04500
C590        C  0.14700251  0.87366407  0.36327249    -0.21900
H591        H  0.14394673  0.89793271  0.32135299     0.19900
H592        H  0.10614311  0.85356814  0.31961396     0.18700
H593        H  0.09389763  0.87079471  0.26965276     0.15000
H594        H  0.15688660  0.88070919  0.36913441     0.14900
H595        H  0.12723498  0.90746806  0.27384337     0.33000
H596        H  0.12453945  0.84316822  0.36574857     0.35800
C597        C  0.13344163  0.86582066  0.04793626     0.21400
C598        C  0.11954803  0.86737908  0.06340660    -0.38500
C599        C  0.11901011  0.87955535  0.08339952     0.20400
C600        C  0.13137995  0.88944925  0.08789254     0.23000
C601        C  0.14534692  0.88790065  0.07229984    -0.39000
C602        C  0.14585897  0.87570687  0.05206236     0.21800
N603        N  0.13655350  0.85545533  0.02705059    -0.32300
C604        C  0.15100543  0.85878340  0.01747336    -0.09800
C605        C  0.15726878  0.87130194  0.03262437    -0.28600
N606        N  0.12791913  0.89987085  0.10869678    -0.45200
C607        C  0.11326533  0.89648136  0.11736774    -0.04500
C608        C  0.10734652  0.88394971  0.10197885    -0.21900
H609        H  0.10982029  0.85969828  0.06002051     0.19900
H610        H  0.15503570  0.89564479  0.07555076     0.18700
H611        H  0.16847571  0.87649726  0.52940829     0.15000
H612        H  0.09614108  0.87851340  0.10461206     0.14900
H613        H  0.12908995  0.84694025  0.01914501     0.33000
H614        H  0.13517474  0.90850119  0.11692800     0.35800
C615        C  0.24296566  0.83837023  0.40737444     0.21400
C616        C  0.25892903  0.83632089  0.41314419    -0.38500
C617        C  0.26870402  0.83664838  0.38878093     0.20400
C618        C  0.26302098  0.83885111  0.36086523     0.23000
C619        C  0.24709128  0.84071285  0.35509854    -0.39000
C620        C  0.23734828  0.84039570  0.37937900     0.21800
N621        N  0.23117941  0.83826344  0.42654496    -0.32300
C622        C  0.21801601  0.84008728  0.41044473    -0.09800
C623        C  0.22142578  0.84150339  0.38103180    -0.28600
N624        N  0.27465698  0.83880842  0.34148190    -0.45200
C625        C  0.28785371  0.83646001  0.35713049    -0.04500
C626        C  0.28462738  0.83503882  0.38669304    -0.21900
H627        H  0.26340330  0.83456479  0.43492674     0.19900
H628        H  0.24259677  0.84225628  0.33327711     0.18700
H629        H  0.21328469  0.84276951  0.36315307     0.15000
H630        H  0.29284310  0.83312832  0.40426258     0.14900
H631        H  0.23199491  0.83657211  0.44896210     0.33000
H632        H  0.27367634  0.84018701  0.31900456     0.35800
C633        C  0.41103355  0.48416870  0.48283436     0.21400
C634        C  0.40720170  0.49979651  0.47775338    -0.38500
C635        C  0.40826840  0.50975128  0.00175983     0.20400
C636        C  0.41316853  0.50447777  0.02875106     0.23000
C637        C  0.41730326  0.48877464  0.53387704    -0.39000
C638        C  0.41593837  0.47893777  0.50985017     0.21800
N639        N  0.41030812  0.47236556  0.46383886    -0.32300
C640        C  0.41478814  0.45958736  0.47900190    -0.09800
C641        C  0.41843667  0.46323201  0.50768153    -0.28600
N642        N  0.41348054  0.51613264  0.04805271    -0.45200
C643        C  0.40887918  0.52895048  0.03318729    -0.04500
C644        C  0.40550990  0.52544595  0.00426822    -0.21900
H645        H  0.40338228  0.50395919  0.45668260     0.19900
H646        H  0.42114732  0.48478420  0.05473921     0.18700
H647        H  0.42213393  0.45537624  0.52478545     0.15000
H648        H  0.40186281  0.53338017  0.98725617     0.14900
H649        H  0.40679144  0.47292187  0.44211683     0.33000
H650        H  0.41704076  0.51549709  0.06974877     0.35800
C651        C  0.33350073  0.73240654  0.29476447     0.21400
C652        C  0.32660908  0.74615652  0.28431257    -0.38500
C653        C  0.33295801  0.75995008  0.29502943     0.20400
C654        C  0.34521827  0.76002940  0.31466728     0.23000
C655        C  0.35213670  0.74629998  0.32503365    -0.39000
C656        C  0.34579178  0.73252546  0.31433160     0.21800
N657        N  0.32900791  0.71779953  0.28934777    -0.32300
C658        C  0.33845445  0.70860888  0.30576011    -0.09800
C659        C  0.34913795  0.71735799  0.32144631    -0.28600
N660        N  0.34854535  0.77457765  0.32276630    -0.45200
C661        C  0.33830877  0.78382039  0.30823991    -0.04500
C662        C  0.32846328  0.77514970  0.29057050    -0.21900
H663        H  0.31677157  0.74611591  0.26954131     0.19900
H664        H  0.36148583  0.74633348  0.34087600     0.18700
H665        H  0.35775124  0.71320634  0.33691023     0.15000
H666        H  0.31895102  0.77936123  0.27712766     0.14900
H667        H  0.31973302  0.71433937  0.27620489     0.33000
H668        H  0.35697019  0.77797796  0.33783863     0.35800
C669        C  0.37345704  0.60186530  0.17669503     0.21400
C670        C  0.35992100  0.60290885  0.19369015    -0.38500
C671        C  0.35866526  0.61611760  0.21144852     0.20400
C672        C  0.37005827  0.62735035  0.21220684     0.23000
C673        C  0.38354801  0.62630352  0.19532168    -0.39000
C674        C  0.38477143  0.61317279  0.17757844     0.21800
N675        N  0.37713758  0.59090511  0.15699899    -0.32300
C676        C  0.39081661  0.59539145  0.14517082    -0.09800
C677        C  0.39595974  0.60915573  0.15763875    -0.28600
N678        N  0.36632858  0.63860831  0.23108933    -0.45200
C679        C  0.35247264  0.63456738  0.24262601    -0.04500
C680        C  0.34725127  0.62062804  0.23082450    -0.21900
H681        H  0.35098346  0.59416004  0.19297423     0.19900
H682        H  0.39239426  0.63515107  0.19577459     0.18700
H683        H  0.40617479  0.61571557  0.15192172     0.15000
H684        H  0.33679706  0.61440758  0.23635579     0.14900
H685        H  0.37044079  0.58135016  0.15107884     0.33000
H686        H  0.37301014  0.64827534  0.23635816     0.35800
C687        C  0.36040028  0.61971481  0.42363069     0.21400
C688        C  0.35928015  0.60763782  0.44390398    -0.38500
C689        C  0.37072837  0.60741432  0.46567665     0.20400
C690        C  0.38239310  0.61836629  0.46710648     0.23000
C691        C  0.38340794  0.63052627  0.44702676    -0.39000
C692        C  0.37196832  0.63075532  0.42527403     0.21800
N693        N  0.35105264  0.62244273  0.40072056    -0.32300
C694        C  0.35667118  0.63536180  0.38787660    -0.09800
C695        C  0.36970082  0.64088620  0.40252314    -0.28600
N696        N  0.39235665  0.61509707  0.48883872    -0.45200
C697        C  0.38698259  0.60197546  0.50127166    -0.04500
C698        C  0.37345207  0.59689312  0.48763703    -0.21900
H699        H  0.35030992  0.59893755  0.44257190     0.19900
H700        H  0.39255968  0.63904621  0.44801859     0.18700
H701        H  0.37646572  0.65104299  0.39740868     0.15000
H702        H  0.36691598  0.58652880  0.49234159     0.14900
H703        H  0.34128783  0.61608221  0.39450977     0.33000
H704        H  0.40243832  0.62112921  0.49429196     0.35800
C705        C  0.16333473  0.73355632  0.44028987     0.21400
C706        C  0.15827926  0.74689301  0.42540225    -0.38500
C707        C  0.16326731  0.76102795  0.43695939     0.20400
C708        C  0.17263329  0.76183870  0.46144447     0.23000
C709        C  0.17776516  0.74845995  0.47629755    -0.39000
C710        C  0.17272139  0.73428308  0.46476477     0.21800
N711        N  0.16042599  0.71877547  0.43321769    -0.32300
C712        C  0.16805596  0.70995798  0.45317836    -0.09800
C713        C  0.17582482  0.71919846  0.47335418    -0.28600
N714        N  0.17579510  0.77669333  0.46791147    -0.45200
C715        C  0.16836689  0.78535871  0.44739079    -0.04500
C716        C  0.16045099  0.77599314  0.42770421    -0.21900
H717        H  0.15103917  0.74629825  0.40614166     0.19900
H718        H  0.18518454  0.74904341  0.49531794     0.18700
H719        H  0.18306812  0.71539687  0.49134921     0.15000
H720        H  0.15361666  0.77964766  0.40906146     0.14900
H721        H  0.15392852  0.71490704  0.41546275     0.33000
H722        H  0.18261637  0.78068678  0.48511565     0.35800
C723        C  0.24259854  0.65586255  0.40700640     0.21400
C724        C  0.25857149  0.65814889  0.41167618    -0.38500
C725        C  0.26795196  0.65737191  0.38683612     0.20400
C726        C  0.26192458  0.65438862  0.35948669     0.23000
C727        C  0.24596507  0.65217938  0.35480644    -0.39000
C728        C  0.23657666  0.65310097  0.37957127     0.21800
N729        N  0.23113248  0.65668754  0.42676296    -0.32300
C730        C  0.21773008  0.65462824  0.41165813    -0.09800
C731        C  0.22067246  0.65229425  0.38222798    -0.28600
N732        N  0.27324369  0.65432043  0.33943825    -0.45200
C733        C  0.28655305  0.65741514  0.35410385    -0.04500
C734        C  0.28372929  0.65939672  0.38369344    -0.21900
H735        H  0.26331404  0.66058712  0.43298340     0.19900
H736        H  0.24117466  0.65013479  0.33338729     0.18700
H737        H  0.21225034  0.65068731  0.36496099     0.15000
H738        H  0.29211326  0.66192425  0.40061624     0.14900
H739        H  0.23229644  0.65906237  0.44889505     0.33000
H740        H  0.27198582  0.65240131  0.31716393     0.35800
C741        C  0.32682235  0.23596026  0.21648479     0.21400
C742        C  0.31909495  0.24941919  0.22604679    -0.38500
C743        C  0.32641859  0.26347073  0.21954284     0.20400
C744        C  0.34036354  0.26402321  0.20466694     0.23000
C745        C  0.34805452  0.25058106  0.19504827    -0.39000
C746        C  0.34072973  0.23655921  0.20150402     0.21800
N747        N  0.32213847  0.22122183  0.21940303    -0.32300
C748        C  0.33312866  0.21241870  0.20610208    -0.09800
C749        C  0.34489750  0.22155647  0.19463965    -0.28600
N750        N  0.34449494  0.27876066  0.19975769    -0.45200
C751        C  0.33305856  0.28768985  0.21134172    -0.04500
C752        C  0.32162982  0.27858505  0.22413851    -0.21900
H753        H  0.30806952  0.24899297  0.23725651     0.19900
H754        H  0.35880783  0.25102747  0.18295862     0.18700
H755        H  0.35504593  0.21774056  0.18269284     0.15000
H756        H  0.31091595  0.28247759  0.23413920     0.14900
H757        H  0.31201339  0.21740117  0.22947422     0.33000
H758        H  0.35418227  0.28250798  0.18817966     0.35800
C759        C  0.36324226  0.37484938  0.09429505     0.21400
C760        C  0.36435290  0.38789888  0.07628086    -0.38500
C761        C  0.37552734  0.38688748  0.05433117     0.20400
C762        C  0.38492792  0.37390651  0.05064611     0.23000
C763        C  0.38372935  0.36080209  0.06853193    -0.39000
C764        C  0.37251853  0.36179436  0.09047061     0.21800
N765        N  0.35351717  0.37290166  0.11667380    -0.32300
C766        C  0.35657373  0.35848417  0.12708735    -0.09800
C767        C  0.36834536  0.35117876  0.11132779    -0.28600
N768        N  0.39480582  0.37597388  0.02850574    -0.45200
C769        C  0.39156755  0.39033336  0.01802050    -0.04500
C770        C  0.37960204  0.39748450  0.03346655    -0.21900
H771        H  0.35707768  0.39809262  0.07917449     0.19900
H772        H  0.39100672  0.35061305  0.06563053     0.18700
H773        H  0.37309703  0.33963057  0.11455068     0.15000
H774        H  0.37497720  0.40905819  0.53040659     0.14900
H775        H  0.34517802  0.38081418  0.12417548     0.33000
H776        H  0.40321096  0.36813709  0.02101047     0.35800
C777        C  0.35567076  0.37661507  0.30570306     0.21400
C778        C  0.35828186  0.39049395  0.32099593    -0.38500
C779        C  0.37021576  0.38989966  0.34205683     0.20400
C780        C  0.37878203  0.37649601  0.34733823     0.23000
C781        C  0.37614786  0.36270742  0.33223825    -0.39000
C782        C  0.36433929  0.36331451  0.31127433     0.21800
N783        N  0.34569538  0.37423708  0.28348851    -0.32300
C784        C  0.34824482  0.35937273  0.27488624    -0.09800
C785        C  0.35969491  0.35221885  0.29184822    -0.28600
N786        N  0.38964008  0.37886375  0.36778597    -0.45200
C787        C  0.38808440  0.39388365  0.37579046    -0.04500
C788        C  0.37604294  0.40120476  0.36031682    -0.21900
H789        H  0.35172774  0.40101368  0.31648322     0.19900
H790        H  0.38303051  0.35232287  0.33612626     0.18700
H791        H  0.36445975  0.34062745  0.28945237     0.15000
H792        H  0.37211775  0.41312407  0.36217027     0.14900
H793        H  0.33815945  0.38237959  0.27396740     0.33000
H794        H  0.39762319  0.37070930  0.37588864     0.35800
C795        C  0.15741830  0.26093929  0.06529674     0.21400
C796        C  0.15078812  0.24752647  0.07690914    -0.38500
C797        C  0.15631096  0.23349360  0.06547116     0.20400
C798        C  0.16759752  0.23286212  0.04413666     0.23000
C799        C  0.17415409  0.24629386  0.03237394    -0.39000
C800        C  0.16861091  0.26034056  0.04378966     0.12200
N801        N  0.15460977  0.27563964  0.07334115    -0.32300
C802        C  0.16404439  0.28445231  0.05678162    -0.09800
C803        C  0.17293672  0.27535927  0.03802456    -0.28600
N804        N  0.17156402  0.21809705  0.03830338    -0.45200
C805        C  0.16276303  0.20931654  0.05612613    -0.04500
C806        C  0.15301213  0.21847965  0.07320883    -0.21900
H807        H  0.14223352  0.24797317  0.09406036     0.19900
H808        H  0.18301864  0.24592404  0.51597744     0.18700
H809        H  0.18162724  0.27919652  0.02275520     0.15000
H810        H  0.14508873  0.21468481  0.08991239     0.14900
H811        H  0.14693159  0.27942818  0.08940827     0.33000
H812        H  0.18008397  0.21425598  0.02384095     0.35800
C813        C  0.23935155  0.33836898  0.10525447     0.21400
C814        C  0.25487010  0.33338588  0.10288142    -0.38500
C815        C  0.26461778  0.33712546  0.12628100     0.20400
C816        C  0.25935341  0.34522171  0.15029036     0.23000
C817        C  0.24381074  0.35028164  0.15261883    -0.39000
C818        C  0.23403346  0.34654552  0.12913521     0.21800
N819        N  0.22766613  0.33559079  0.08654330    -0.32300
C820        C  0.21477982  0.34205006  0.09848353    -0.09800
C821        C  0.21828369  0.34906106  0.12502267    -0.28600
N822        N  0.27089488  0.34695679  0.16986897    -0.45200
C823        C  0.28355235  0.33989759  0.15815425    -0.04500
C824        C  0.28008853  0.33367052  0.13098286    -0.21900
H825        H  0.25899532  0.32684555  0.08437120     0.19900
H826        H  0.23958915  0.35644757  0.17149611     0.18700
H827        H  0.21027666  0.35465920  0.13983662     0.15000
H828        H  0.28784157  0.32737524  0.11667229     0.14900
H829        H  0.22832600  0.32928210  0.06723950     0.33000
H830        H  0.27019964  0.35252216  0.18995077     0.35800
C831        C  0.12748050  0.63336388  0.34326139     0.21400
C832        C  0.11584839  0.63485363  0.32178579    -0.38500
C833        C  0.11466581  0.62236123  0.30232081     0.20400
C834        C  0.12435729  0.60947171  0.30425586     0.23000
C835        C  0.13577699  0.60790540  0.32585349    -0.39000
C836        C  0.13695566  0.62031975  0.34518040     0.21800
N837        N  0.13157508  0.64384582  0.36345575    -0.32300
C838        C  0.14370820  0.63733305  0.37816882    -0.09800
C839        C  0.14731070  0.62264690  0.36751766    -0.28600
N840        N  0.12131341  0.59939465  0.28290988    -0.45200
C841        C  0.10951355  0.60575802  0.26722975    -0.04500
C842        C  0.10496635  0.62009794  0.27866480    -0.21900
H843        H  0.10847421  0.64506494  0.32005721     0.19900
H844        H  0.14339881  0.59785824  0.32717356     0.18700
H845        H  0.15659580  0.61492371  0.37457219     0.15000
H846        H  0.09589672  0.62781490  0.27068233     0.14900
H847        H  0.12666184  0.65483928  0.36664079     0.33000
H848        H  0.12687261  0.58875029  0.27933463     0.35800
C849        C  0.13151796  0.62824396  0.04750177     0.21400
C850        C  0.11763373  0.62703210  0.06309925    -0.38500
C851        C  0.11690157  0.61461547  0.08264620     0.20400
C852        C  0.12904041  0.60411946  0.08644845     0.23000
C853        C  0.14297653  0.60532267  0.07073590    -0.39000
C854        C  0.14373362  0.61782099  0.05113705     0.21800
N855        N  0.13501364  0.63903977  0.02762626    -0.32300
C856        C  0.14956545  0.63552960  0.01838424    -0.09800
C857        C  0.15543522  0.62237225  0.03258019    -0.28600
N858        N  0.12567116  0.59388045  0.10757733    -0.45200
C859        C  0.11136904  0.59807069  0.11736387    -0.04500
C860        C  0.10549974  0.61082768  0.10212051    -0.21900
H861        H  0.10816093  0.63529345  0.06049883     0.19900
H862        H  0.15257934  0.59726104  0.07380573     0.18700
H863        H  0.16660294  0.61674676  0.02935007     0.15000
H864        H  0.09464973  0.61697927  0.10580171     0.14900
H865        H  0.12782646  0.64812633  0.02045156     0.33000
H866        H  0.13291948  0.58507175  0.11572564     0.35800
C867        C  0.13039660  0.36602570  0.46052238     0.21400
C868        C  0.11683029  0.36727317  0.44356415    -0.38500
C869        C  0.11634637  0.37966430  0.42382458     0.20400
C870        C  0.12842541  0.39007680  0.42120150     0.23000
C871        C  0.14196074  0.38889307  0.43837449    -0.39000
C872        C  0.14247067  0.37644999  0.45810179     0.21800
N873        N  0.13372572  0.35517499  0.48062762    -0.32300
C874        C  0.14800222  0.35870953  0.49123875    -0.09800
C875        C  0.15384390  0.37192471  0.47775296    -0.28600
N876        N  0.12533393  0.40044518  0.40003450    -0.45200
C877        C  0.11121698  0.39656969  0.38910831    -0.04500
C878        C  0.10522378  0.38371345  0.40348941    -0.21900
H879        H  0.10742337  0.35907574  0.44534380     0.19900
H880        H  0.15146616  0.39695527  0.43628824     0.18700
H881        H  0.16454962  0.37743996  0.98235030     0.15000
H882        H  0.09439694  0.37784049  0.39904345     0.14900
H883        H  0.12660978  0.34606248  0.48707491     0.33000
H884        H  0.13256367  0.40938666  0.39295018     0.35800
C885        C  0.12136474  0.37275499  0.21902865     0.21400
C886        C  0.13253129  0.36164533  0.21092664    -0.38500
C887        C  0.13313434  0.35825520  0.18121248     0.20400
C888        C  0.12346964  0.36549857  0.16108185     0.23000
C889        C  0.11215354  0.37643651  0.16924034    -0.39000
C890        C  0.11146726  0.37973479  0.19897317     0.21800
N891        N  0.11899494  0.37859354  0.24566050    -0.32300
C892        C  0.10745588  0.38928604  0.24247757    -0.09800
C893        C  0.10238667  0.39026650  0.21375158    -0.28600
N894        N  0.12723711  0.36121883  0.13399083    -0.45200
C895        C  0.13929049  0.35110033  0.13699202    -0.04500
C896        C  0.14321526  0.34883279  0.16607824    -0.21900
H897        H  0.14043951  0.35634526  0.22648267     0.19900
H898        H  0.10473045  0.38226547  0.15351699     0.18700
H899        H  0.09355950  0.39795817  0.20479096     0.15000
H900        H  0.15274936  0.34194583  0.17480619     0.14900
H901        H  0.12497997  0.37564613  0.26471808     0.33000
H902        H  0.12227881  0.36531105  0.11464994     0.35800
C903        C  0.09987862  0.48446426  0.25849167     0.21400
C904        C  0.10277989  0.49355427  0.23385412    -0.38500
C905        C  0.09761499  0.50899285  0.23534978     0.20400
C906        C  0.09009303  0.51486944  0.25951996     0.23000
C907        C  0.08718413  0.50578193  0.28414178    -0.39000
C908        C  0.09239050  0.49036001  0.28268561     0.21800
N909        N  0.10275107  0.46924299  0.26173201    -0.32300
C910        C  0.09693814  0.46538822  0.28803416    -0.09800
C911        C  0.09052634  0.47827863  0.30193474    -0.28600
N912        N  0.08634394  0.52986040  0.25557751    -0.45200
C913        C  0.09159587  0.53359116  0.22880210    -0.04500
C914        C  0.09864749  0.52087379  0.21540968    -0.21900
H915        H  0.10846250  0.48889445  0.21480565     0.19900
H916        H  0.08112784  0.51033132  0.30287970     0.18700
H917        H  0.08444315  0.47856413  0.32244718     0.15000
H918        H  0.10396209  0.52044167  0.19417159     0.14900
H919        H  0.10761651  0.46177218  0.24634581     0.33000
H920        H  0.08075544  0.53717245  0.27036882     0.35800
C921        C  0.76380205  0.84518395  0.37676147     0.21400
C922        C  0.75571559  0.84729188  0.35045147    -0.38500
C923        C  0.73972308  0.84425145  0.35125403     0.20400
C924        C  0.73238950  0.83952494  0.37640438     0.23000
C925        C  0.74044475  0.83756201  0.40276785    -0.39000
C926        C  0.75644086  0.84054872  0.40194743     0.21800
N927        N  0.77920760  0.84620770  0.38114200    -0.32300
C928        C  0.78170112  0.84212694  0.40924088    -0.09800
C929        C  0.76776344  0.83866329  0.42305687    -0.28600
N930        N  0.71727360  0.83682462  0.37127980    -0.45200
C931        C  0.71492165  0.83987157  0.34270208    -0.04500
C932        C  0.72864469  0.84458489  0.32943267    -0.21900
H933        H  0.76152580  0.85065210  0.33065409     0.19900
H934        H  0.73474820  0.83359850  0.42228462     0.18700
H935        H  0.76622611  0.83454671  0.44505604     0.15000
H936        H  0.73031162  0.84767608  0.30688683     0.14900
H937        H  0.78759048  0.84891400  0.36563792     0.33000
H938        H  0.70905400  0.83307314  0.38630525     0.35800
C939        C  0.51410059  0.90788887  0.05675809     0.21400
C940        C  0.50024948  0.90243467  0.04441783    -0.38500
C941        C  0.48655870  0.90669668  0.05888270     0.20400
C942        C  0.48665776  0.91571080  0.08373424     0.23000
C943        C  0.50053147  0.92113609  0.09612402    -0.39000
C944        C  0.51423547  0.91687101  0.08165039     0.21800
N945        N  0.52858284  0.90582757  0.04662960    -0.32300
C946        C  0.53801012  0.91354209  0.06518528    -0.09800
C947        C  0.52951736  0.92057311  0.08735794    -0.28600
N948        N  0.47206119  0.91874125  0.09255334    -0.45200
C949        C  0.46262693  0.91164585  0.07311342    -0.04500
C950        C  0.47123672  0.90393816  0.05189515    -0.21900
H951        H  0.50012649  0.89560472  0.02472333     0.19900
H952        H  0.50062800  0.92836322  0.11531122     0.18700
H953        H  0.53390058  0.92765161  0.10491766     0.15000
H954        H  0.46685998  0.89761614  0.03333455     0.14900
H955        H  0.53183644  0.89973695  0.02800010     0.33000
H956        H  0.46871726  0.92554939  0.11022003     0.35800
C957        C  0.61220329  0.87836571  0.44227123     0.21400
C958        C  0.61120618  0.86672090  0.42102627    -0.38500
C959        C  0.62356087  0.86611137  0.40115774     0.20400
C960        C  0.63579617  0.87643537  0.40227028     0.23000
C961        C  0.63679109  0.88799707  0.42342097    -0.39000
C962        C  0.62460046  0.88848988  0.44335106     0.21800
N963        N  0.60219041  0.88133195  0.46399033    -0.32300
C964        C  0.60841336  0.89336495  0.47886252    -0.09800
C965        C  0.62235829  0.89809042  0.46666809    -0.28600
N966        N  0.64637050  0.87314855  0.38185542    -0.45200
C967        C  0.64099954  0.86050372  0.36778904    -0.04500
C968        C  0.62674653  0.85578972  0.37903287    -0.21900
H969        H  0.60169713  0.85858884  0.42033474     0.19900
H970        H  0.64650185  0.89587580  0.42458409     0.18700
H971        H  0.62996105  0.90714233  0.97429680     0.15000
H972        H  0.61992926  0.84588340  0.37253921     0.14900
H973        H  0.59181409  0.87557208  0.46840372     0.33000
H974        H  0.65688720  0.87880570  0.37843230     0.35800
C975        C  0.63190173  0.88949902  0.15340549     0.21400
C976        C  0.64439189  0.88992845  0.17327457    -0.38500
C977        C  0.64637655  0.87665849  0.19078114     0.20400
C978        C  0.63667183  0.86398800  0.18847762     0.23000
C979        C  0.62430988  0.86352864  0.16860049    -0.39000
C980        C  0.62230090  0.87674772  0.15129755     0.21800
N981        N  0.62712582  0.90075864  0.13499901    -0.32300
C982        C  0.61437985  0.89506625  0.12131047    -0.09800
C983        C  0.61108624  0.88012308  0.13083962    -0.28600
N984        N  0.64030012  0.85323845  0.20851453    -0.45200
C985        C  0.65237436  0.85903052  0.22390307    -0.04500
C986        C  0.65661795  0.87359159  0.21338555    -0.21900
H987        H  0.65177401  0.89996399  0.17540887     0.19900
H988        H  0.61657589  0.85372227  0.16719703     0.18700
H989        H  0.60165816  0.87275333  0.12385565     0.15000
H990        H  0.66547047  0.88118367  0.22197537     0.14900
H991        H  0.63213547  0.91164094  0.13207097     0.33000
H992        H  0.63452666  0.84281206  0.21218349     0.35800
C993        C  0.48440088  0.09317510  0.44667196     0.21400
C994        C  0.49802279  0.09862072  0.45997607    -0.38500
C995        C  0.51201617  0.09427666  0.44655480     0.20400
C996        C  0.51239760  0.08520888  0.42177980     0.23000
C997        C  0.49877535  0.07980459  0.40844545    -0.39000
C998        C  0.48478925  0.08411246  0.42189304     0.21800
N999        N  0.46972745  0.09491882  0.45612672    -0.32300
C1000       C  0.46074019  0.08679237  0.43739243    -0.09800
C1001       C  0.46969097  0.07998301  0.41561903    -0.28600
N1002       N  0.52714886  0.08198238  0.41416492    -0.45200
C1003       C  0.53622658  0.08901751  0.43424924    -0.04500
C1004       C  0.52721967  0.09687649  0.45472443    -0.21900
H1005       H  0.49776231  0.10539427  0.47973513     0.19900
H1006       H  0.49906644  0.07243088  0.38946042     0.18700
H1007       H  0.46574803  0.07255626  0.39820473     0.15000
H1008       H  0.53124822  0.10314745  0.47361893     0.14900
H1009       H  0.46611195  0.10080108  0.47475723     0.33000
H1010       H  0.53081026  0.07506365  0.39685668     0.35800
C1011       C  0.58839373  0.01656168  0.50032918     0.21400
C1012       C  0.58717336  0.00722577  0.02518403    -0.38500
C1013       C  0.58827181  0.99117204  0.02049195     0.20400
C1014       C  0.59026210  0.98496296  0.99305107     0.23000
C1015       C  0.59172653  0.99430822  0.46827190    -0.39000
C1016       C  0.59066157  0.01034083  0.47297169     0.21800
N1017       N  0.58732389  0.03209152  0.49888275    -0.32300
C1018       C  0.58891214  0.03578341  0.47042193    -0.09800
C1019       C  0.59110928  0.02253690  0.45357707    -0.28600
N1020       N  0.59069292  0.96940550  0.99425966    -0.45200
C1021       C  0.58911146  0.96563415  0.02267679    -0.04500
C1022       C  0.58756103  0.97890396  0.03976596    -0.21900
H1023       H  0.58545561  0.01208765  0.04659107     0.19900
H1024       H  0.59334801  0.98944633  0.44683901     0.18700
H1025       H  0.59255494  0.02190813  0.43028026     0.15000
H1026       H  0.58597528  0.97948406  0.06303401     0.14900
H1027       H  0.58546534  0.03971011  0.51616298     0.33000
H1028       H  0.59202360  0.96180055  0.97680407     0.35800
C1029       C  0.98620533  0.91572004  0.17785405     0.21400
C1030       C  0.99925748  0.92196942  0.16407132    -0.38500
C1031       C  0.01374162  0.91721698  0.17527339     0.20400
C1032       C  0.01509129  0.90702986  0.19844015     0.23000
C1033       C  0.00204333  0.90086408  0.21234712    -0.39000
C1034       C  0.98756201  0.90559293  0.20111038     0.21800
N1035       N  0.97117063  0.91848107  0.17143016    -0.32300
C1036       C  0.96289857  0.91007323  0.19074401    -0.09800
C1037       C  0.97270404  0.90187860  0.20963651    -0.28600
N1038       N  0.03011265  0.90441865  0.20511288    -0.45200
C1039       C  0.03838344  0.91305327  0.18616067    -0.04500
C1040       C  0.02859971  0.92120606  0.16718337    -0.21900
H1041       H  0.99820876  0.92996887  0.14601766     0.19900
H1042       H  0.00309301  0.89299274  0.23059775     0.18700
H1043       H  0.96940397  0.89436455  0.22736687     0.15000
H1044       H  0.03190933  0.92909734  0.15004570     0.14900
H1045       H  0.96680048  0.92576388  0.15511530     0.33000
H1046       H  0.03446971  0.89738301  0.22181997     0.35800
C1047       C  0.87261542  0.88188776  0.29687829     0.21400
C1048       C  0.86123607  0.88354384  0.31824776    -0.38500
C1049       C  0.85962587  0.87090599  0.33695299     0.20400
C1050       C  0.86858092  0.85753218  0.33459931     0.23000
C1051       C  0.88014065  0.85592592  0.31330740    -0.39000
C1052       C  0.88182756  0.86867789  0.29458455     0.21800
N1053       N  0.87643171  0.89236912  0.27671660    -0.32300
C1054       C  0.88828335  0.88592325  0.26158152    -0.09800
C1055       C  0.89202769  0.87114008  0.27202512    -0.28600
N1056       N  0.86463830  0.84722551  0.35519535    -0.45200
C1057       C  0.85323620  0.85428407  0.37074044    -0.04500
C1058       C  0.84980160  0.86900224  0.35998388    -0.21900
H1059       H  0.85418496  0.89395496  0.32024357     0.19900
H1060       H  0.88731521  0.84558787  0.31154002     0.18700
H1061       H  0.90106325  0.86336004  0.26435888     0.15000
H1062       H  0.84124518  0.87721449  0.36799249     0.14900
H1063       H  0.87149824  0.90339469  0.27384347     0.33000
H1064       H  0.86946909  0.83620722  0.35863585     0.35800
C1065       C  0.86854682  0.86523975  0.04650417     0.21400
C1066       C  0.88234317  0.86570387  0.06281074    -0.38500
C1067       C  0.88331842  0.87772248  0.08311425     0.20400
C1068       C  0.87149662  0.88854633  0.08685963     0.23000
C1069       C  0.85760931  0.88802810  0.07059251    -0.39000
C1070       C  0.85658388  0.87590232  0.05032751     0.21800
N1071       N  0.86488747  0.85497122  0.02579139    -0.32300
C1072       C  0.85044665  0.85899570  0.01636643    -0.09800
C1073       C  0.84481865  0.87198708  0.03118662    -0.28600
N1074       N  0.87519859  0.89856515  0.10812865    -0.45200
C1075       C  0.88940484  0.89395742  0.11805567    -0.04500
C1076       C  0.89484132  0.88103436  0.10291856    -0.21900
H1077       H  0.89160280  0.85724367  0.06003566     0.19900
H1078       H  0.84826344  0.89636205  0.07364195     0.18700
H1079       H  0.83377208  0.87790157  0.02802236     0.15000
H1080       H  0.90558479  0.87464362  0.10652592     0.14900
H1081       H  0.87183883  0.84580166  0.01839602     0.33000
H1082       H  0.86829047  0.90765101  0.11602986     0.35800
C1083       C  0.01399103  0.07580100  0.32921407     0.21400
C1084       C  0.00061337  0.06858579  0.33982325    -0.38500
C1085       C  0.98641761  0.07481629  0.32994816     0.20400
C1086       C  0.98563102  0.08725759  0.31092330     0.23000
C1087       C  0.99900393  0.09447818  0.30033262    -0.39000
C1088       C  0.01319210  0.08823879  0.31018346     0.21800
N1089       N  0.02885895  0.07181987  0.33470833    -0.32300
C1090       C  0.03755167  0.08174711  0.31893843    -0.09800
C1091       C  0.02822127  0.09217338  0.30338291    -0.28600
N1092       N  0.97079091  0.09064005  0.30402773    -0.45200
C1093       C  0.96208164  0.08029312  0.31878529    -0.04500
C1094       C  0.97138436  0.07026148  0.33528496    -0.21900
H1095       H  0.00121794  0.05872609  0.35437220     0.19900
H1096       H  0.99840644  0.10408494  0.28519888     0.18700
H1097       H  0.03193683  0.10124383  0.28877835     0.15000
H1098       H  0.96766835  0.06068168  0.34869521     0.14900
H1099       H  0.03284179  0.06274613  0.34791989     0.33000
H1100       H  0.96684066  0.09927864  0.28978536     0.35800
C1101       C  0.90826617  0.00446979  0.27697376     0.21400
C1102       C  0.90820739  0.98856808  0.28357349    -0.38500
C1103       C  0.90841153  0.97852561  0.25959720     0.20400
C1104       C  0.90853047  0.98389986  0.23124308     0.23000
C1105       C  0.90863512  0.99976490  0.22466689    -0.39000
C1106       C  0.90857043  0.00978005  0.24859147     0.21800
N1107       N  0.90852306  0.01641824  0.29575011    -0.32300
C1108       C  0.90913877  0.02936259  0.27906043    -0.09800
C1109       C  0.90916829  0.02567635  0.24961525    -0.28600
N1110       N  0.90893549  0.97203851  0.21236999    -0.45200
C1111       C  0.90915831  0.95901430  0.22882826    -0.04500
C1112       C  0.90885163  0.96257375  0.25837287    -0.21900
H1113       H  0.90820688  0.98432588  0.30570289     0.19900
H1114       H  0.90895856  0.00400341  0.20254699     0.18700
H1115       H  0.90973186  0.03359065  0.23139286     0.15000
H1116       H  0.90907956  0.95456063  0.27648760     0.14900
H1117       H  0.90856746  0.01580343  0.31839839     0.33000
H1118       H  0.90925684  0.97275651  0.18972882     0.35800
C1119       C  0.62612424  0.13336277  0.08874920     0.21400
C1120       C  0.61522763  0.13528703  0.06625504    -0.38500
C1121       C  0.61437484  0.12302703  0.04642777     0.20400
C1122       C  0.62367833  0.10987337  0.04882434     0.23000
C1123       C  0.63451982  0.10791194  0.07138517    -0.39000
C1124       C  0.63536407  0.12016692  0.09120950     0.21800
N1125       N  0.62981092  0.14370167  0.10935122    -0.32300
C1126       C  0.64154525  0.13705213  0.12483134    -0.09800
C1127       C  0.64522770  0.12231956  0.11440494    -0.28600
N1128       N  0.62069396  0.09996463  0.02714697    -0.45200
C1129       C  0.60937132  0.10683436  0.01095292    -0.04500
C1130       C  0.60511282  0.12123092  0.02223466    -0.21900
H1131       H  0.60810144  0.14564907  0.06411997     0.19900
H1132       H  0.64191010  0.09770952  0.07311913     0.18700
H1133       H  0.65440816  0.11458125  0.12186808     0.15000
H1134       H  0.59617285  0.12910910  0.51414440     0.14900
H1135       H  0.62510671  0.15482020  0.11194578     0.33000
H1136       H  0.62586895  0.08908258  0.02382022     0.35800
C1137       C  0.61743911  0.11922926  0.33268033     0.21400
C1138       C  0.61777465  0.13237328  0.31479273    -0.38500
C1139       C  0.63105729  0.13390664  0.29762350     0.20400
C1140       C  0.64314192  0.12317350  0.29815271     0.23000
C1141       C  0.64279540  0.10995484  0.31608429    -0.39000
C1142       C  0.62944760  0.10841032  0.33335537     0.21800
N1143       N  0.60627698  0.11546192  0.35157979    -0.32300
C1144       C  0.61114408  0.10218350  0.36464235    -0.09800
C1145       C  0.62553226  0.09732005  0.35372567    -0.28600
N1146       N  0.65420026  0.12710560  0.27898501    -0.45200
C1147       C  0.64900164  0.14035134  0.26611538    -0.04500
C1148       C  0.63466232  0.14498199  0.27730837    -0.21900
H1149       H  0.60835017  0.14079195  0.31425820     0.19900
H1150       H  0.65219975  0.10151490  0.31654013     0.18700
H1151       H  0.63242416  0.08737188  0.36050521     0.15000
H1152       H  0.62754831  0.15480154  0.27064419     0.14900
H1153       H  0.59613801  0.12180828  0.35594594     0.33000
H1154       H  0.66435015  0.12086560  0.27416150     0.35800
C1155       C  0.87311019  0.12744895  0.15816439     0.21400
C1156       C  0.88546859  0.12813295  0.17814874    -0.38500
C1157       C  0.88596334  0.11625120  0.19896497     0.20400
C1158       C  0.87497880  0.10461440  0.19975277     0.23000
C1159       C  0.86271660  0.10385872  0.17966704    -0.39000
C1160       C  0.86222885  0.11571478  0.15887469     0.21800
N1161       N  0.86960672  0.13772971  0.13712720    -0.32300
C1162       C  0.85641902  0.13247320  0.12442564    -0.09800
C1163       C  0.85151890  0.11872126  0.13724486    -0.28600
N1164       N  0.87776465  0.09492320  0.22200969    -0.45200
C1165       C  0.89062565  0.10039822  0.23546399    -0.04500
C1166       C  0.89614017  0.11365791  0.22172194    -0.21900
H1167       H  0.89391475  0.13735933  0.17780009     0.19900
H1168       H  0.85405311  0.09484300  0.18046398     0.18700
H1169       H  0.84121080  0.11213025  0.13210866     0.15000
H1170       H  0.90615567  0.12049456  0.22767928     0.14900
H1171       H  0.87559307  0.14787088  0.13216278     0.33000
H1172       H  0.87132491  0.08518121  0.22769167     0.35800
C1173       C  0.85724413  0.11720231  0.45301051     0.21400
C1174       C  0.85877611  0.10331852  0.43729774    -0.38500
C1175       C  0.87100457  0.10281163  0.41719138     0.20400
C1176       C  0.88099859  0.11513852  0.41334711     0.23000
C1177       C  0.87959190  0.12890216  0.42926291    -0.39000
C1178       C  0.86732111  0.12945338  0.44910334     0.21800
N1179       N  0.84658134  0.12069432  0.47331251    -0.32300
C1180       C  0.85001352  0.13521251  0.48243434    -0.09800
C1181       C  0.86284750  0.14104745  0.46780363    -0.28600
N1182       N  0.89126282  0.11207665  0.39223816    -0.45200
C1183       C  0.88777133  0.09773238  0.38237272    -0.04500
C1184       C  0.87525690  0.09150495  0.39749627    -0.21900
H1185       H  0.85090329  0.09372534  0.44020265     0.19900
H1186       H  0.88736748  0.13855714  0.42615630     0.18700
H1187       H  0.86861007  0.15198821  0.97100024     0.15000
H1188       H  0.86977846  0.08040904  0.39403017     0.14900
H1189       H  0.83781301  0.11348230  0.48111407     0.33000
H1190       H  0.89988378  0.11945470  0.38452780     0.35800
C1191       C  0.75866514  0.15268402  0.09839554     0.21400
C1192       C  0.74253686  0.15347452  0.09373562    -0.38500
C1193       C  0.73334596  0.15291169  0.11879584     0.20400
C1194       C  0.73968440  0.15155905  0.14640959     0.23000
C1195       C  0.75580882  0.15076213  0.15106473    -0.39000
C1196       C  0.76499798  0.15143359  0.12602758     0.21800
N1197       N  0.76994104  0.15365632  0.07833081    -0.32300
C1198       C  0.78351176  0.15313085  0.09342837    -0.09800
C1199       C  0.78089687  0.15171361  0.12315705    -0.28600
N1200       N  0.72847238  0.15204949  0.16667252    -0.45200
C1201       C  0.71493929  0.15389309  0.15178351    -0.04500
C1202       C  0.71750162  0.15436899  0.12192395    -0.21900
H1203       H  0.73752140  0.15481166  0.07226002     0.19900
H1204       H  0.76084497  0.15005644  0.17262227     0.18700
H1205       H  0.78949857  0.15125519  0.14039941     0.15000
H1206       H  0.70894458  0.15607236  0.10485593     0.14900
H1207       H  0.76850052  0.15498478  0.05592516     0.33000
H1208       H  0.72997311  0.15171342  0.18918845     0.35800
C1209       C  0.67029907  0.73482918  0.28353580     0.21400
C1210       C  0.67730267  0.74815229  0.27213453    -0.38500
C1211       C  0.67129474  0.76235482  0.28215457     0.20400
C1212       C  0.65925321  0.76316545  0.30197887     0.23000
C1213       C  0.65227205  0.74988280  0.31333390    -0.39000
C1214       C  0.65826637  0.73573188  0.30335951     0.21800
N1215       N  0.67431849  0.71995693  0.27863561    -0.32300
C1216       C  0.66482189  0.71142448  0.29565116    -0.09800
C1217       C  0.65460668  0.72083995  0.31122651    -0.28600
N1218       N  0.65602505  0.77794024  0.30892904    -0.45200
C1219       C  0.66608348  0.78664243  0.29350393    -0.04500
C1220       C  0.67577807  0.77736558  0.27643613    -0.21900
H1221       H  0.68689877  0.74750671  0.25704536     0.19900
H1222       H  0.64305544  0.75051911  0.32922730     0.18700
H1223       H  0.64602029  0.71727870  0.32693660     0.15000
H1224       H  0.68508577  0.78107964  0.26237894     0.14900
H1225       H  0.68326345  0.71589366  0.26531373     0.33000
H1226       H  0.64769987  0.78185048  0.32373252     0.35800
C1227       C  0.83912325  0.76164634  0.44256839     0.21400
C1228       C  0.84585591  0.74856097  0.42957926    -0.38500
C1229       C  0.84072121  0.73425496  0.43994281     0.20400
C1230       C  0.82976093  0.73303790  0.46173232     0.23000
C1231       C  0.82298594  0.74617827  0.47476551    -0.39000
C1232       C  0.82809317  0.76054662  0.46426942     0.21800
N1233       N  0.84159440  0.77649093  0.43552913    -0.32300
C1234       C  0.83203947  0.78497187  0.45268953    -0.09800
C1235       C  0.82345060  0.77547807  0.47108019    -0.28600
N1236       N  0.82639842  0.71807774  0.46673509    -0.45200
C1237       C  0.83518291  0.70980412  0.44776859    -0.04500
C1238       C  0.84431874  0.71948190  0.43082924    -0.21900
H1239       H  0.85422714  0.74946264  0.41219603     0.19900
H1240       H  0.81416979  0.74528052  0.49136231     0.18700
H1241       H  0.81472914  0.77899380  0.48667389     0.15000
H1242       H  0.85217001  0.71617447  0.41356469     0.14900
H1243       H  0.84907255  0.78059341  0.41950232     0.33000
H1244       H  0.81827392  0.71379514  0.48141333     0.35800
C1245       C  0.76553813  0.65216732  0.37269492     0.21400
C1246       C  0.75669877  0.64957657  0.34738621    -0.38500
C1247       C  0.74066836  0.65273095  0.34955394     0.20400
C1248       C  0.73403064  0.65805668  0.37501743     0.23000
C1249       C  0.74283079  0.66047450  0.40036105    -0.39000
C1250       C  0.75882315  0.65731375  0.39821397     0.21800
N1251       N  0.78106765  0.65092927  0.37581200    -0.32300
C1252       C  0.78426389  0.65528901  0.40350043    -0.09800
C1253       C  0.77066344  0.65923282  0.41824164    -0.28600
N1254       N  0.71874412  0.66081321  0.37125395    -0.45200
C1255       C  0.71552439  0.65721156  0.34322765    -0.04500
C1256       C  0.72890552  0.65203308  0.32896467    -0.21900
H1257       H  0.76196722  0.64572519  0.32732596     0.19900
H1258       H  0.73764791  0.66482969  0.42013742     0.18700
H1259       H  0.76964779  0.66353549  0.44021570     0.15000
H1260       H  0.72993500  0.64851287  0.30650850     0.14900
H1261       H  0.78905385  0.64767956  0.35986260     0.33000
H1262       H  0.71097487  0.66502891  0.38678694     0.35800
C1263       C  0.48920441  0.41098011  0.42086787     0.21400
C1264       C  0.50243400  0.41719475  0.40758184    -0.38500
C1265       C  0.51682393  0.41206508  0.41873690     0.20400
C1266       C  0.51794421  0.40154431  0.44140935     0.23000
C1267       C  0.50471691  0.39524910  0.45456692    -0.39000
C1268       C  0.49032906  0.40038580  0.44341745     0.21800
N1269       N  0.47423670  0.41473419  0.41548603    -0.32300
C1270       C  0.46576852  0.40650479  0.43478689    -0.09800
C1271       C  0.47539115  0.39734658  0.45245826    -0.28600
N1272       N  0.53288003  0.39940388  0.44941809    -0.45200
C1273       C  0.54132847  0.40869043  0.43184889    -0.04500
C1274       C  0.53173943  0.41664464  0.41220790    -0.21900
H1275       H  0.50158305  0.42576074  0.39043065     0.19900
H1276       H  0.50556084  0.38731000  0.47274697     0.18700
H1277       H  0.47195345  0.38994708  0.47026412     0.15000
H1278       H  0.53515713  0.42516508  0.39624549     0.14900
H1279       H  0.47007219  0.42278236  0.40028828     0.33000
H1280       H  0.53701958  0.39250203  0.46650456     0.35800
C1281       C  0.51456614  0.57664409  0.07405788     0.21400
C1282       C  0.50155142  0.57088613  0.08858204    -0.38500
C1283       C  0.48708895  0.57483272  0.07635012     0.20400
C1284       C  0.48567292  0.58382385  0.05152079     0.23000
C1285       C  0.49871812  0.58951025  0.03685008    -0.39000
C1286       C  0.51320456  0.58557953  0.04914256     0.21800
N1287       N  0.52957340  0.57447799  0.08132816    -0.32300
C1288       C  0.53782863  0.58206091  0.06086843    -0.09800
C1289       C  0.52805802  0.58914185  0.04041617    -0.28600
N1290       N  0.47060578  0.58604715  0.04453864    -0.45200
C1291       C  0.46242573  0.57838784  0.06507864    -0.04500
C1292       C  0.47229688  0.57121772  0.08520785    -0.21900
H1293       H  0.50260744  0.56387727  0.10802156     0.19900
H1294       H  0.49766914  0.59650276  0.01738679     0.18700
H1295       H  0.53138823  0.59581976  0.02156507     0.15000
H1296       H  0.46906919  0.56436488  0.10389827     0.14900
H1297       H  0.53393438  0.56808956  0.09890485     0.33000
H1298       H  0.46616507  0.59236230  0.02692493     0.35800
C1299       C  0.62510929  0.61165464  0.45236045     0.21400
C1300       C  0.63759162  0.61135699  0.43302566    -0.38500
C1301       C  0.63744631  0.62298999  0.41187315     0.20400
C1302       C  0.62582171  0.63419262  0.41007305     0.23000
C1303       C  0.61318518  0.63440484  0.42933984    -0.39000
C1304       C  0.61328387  0.62265108  0.45052625     0.21800
N1305       N  0.62268243  0.60182878  0.47439584    -0.32300
C1306       C  0.60914848  0.60646488  0.48664430    -0.09800
C1307       C  0.60287719  0.61941003  0.47239133    -0.28600
N1308       N  0.62877332  0.64423567  0.38842768    -0.45200
C1309       C  0.64231700  0.63923184  0.37648757    -0.04500
C1310       C  0.64799809  0.62600919  0.39043516    -0.21900
H1311       H  0.64680387  0.60273306  0.43444863     0.19900
H1312       H  0.60402774  0.64308986  0.42803424     0.18700
H1313       H  0.59216316  0.62554291  0.47729149     0.15000
H1314       H  0.65864350  0.61967097  0.38590577     0.14900
H1315       H  0.62970041  0.59270738  0.98065869     0.33000
H1316       H  0.62211241  0.65393282  0.38235960     0.35800
C1317       C  0.62743872  0.60699081  0.16491690     0.21400
C1318       C  0.64084730  0.60739001  0.18249892    -0.38500
C1319       C  0.64205127  0.62026600  0.20099085     0.20400
C1320       C  0.63069286  0.63175025  0.20197644     0.23000
C1321       C  0.61728870  0.63131403  0.18454863    -0.39000
C1322       C  0.61615886  0.61854955  0.16593615     0.21800
N1323       N  0.62386860  0.59643556  0.14452688    -0.32300
C1324       C  0.61030883  0.60144354  0.13238101    -0.09800
C1325       C  0.60510270  0.61513359  0.14527918    -0.28600
N1326       N  0.63446672  0.64269169  0.22136776    -0.45200
C1327       C  0.64831774  0.63818953  0.23293691    -0.04500
C1328       C  0.65347579  0.62426024  0.22073759    -0.21900
H1329       H  0.64976183  0.59845372  0.18158357     0.19900
H1330       H  0.60848622  0.64037205  0.18514607     0.18700
H1331       H  0.59486924  0.62193472  0.13963514     0.15000
H1332       H  0.66395707  0.61777867  0.22607051     0.14900
H1333       H  0.63047936  0.58674367  0.13858893     0.33000
H1334       H  0.62785784  0.65249232  0.22682182     0.35800
C1335       C  0.59082275  0.48217396  0.50433906     0.21400
C1336       C  0.58852621  0.49133505  0.52918327    -0.38500
C1337       C  0.59127371  0.50730978  0.02573614     0.20400
C1338       C  0.59643526  0.51350039  0.99979820     0.23000
C1339       C  0.59846430  0.50428259  0.47479999    -0.39000
C1340       C  0.59563825  0.48841677  0.47821832     0.21800
N1341       N  0.58870740  0.46683079  0.50178426    -0.32300
C1342       C  0.59222111  0.46327860  0.47388118    -0.09800
C1343       C  0.59660680  0.47644073  0.45847288    -0.28600
N1344       N  0.59777656  0.52894272  0.00180979    -0.45200
C1345       C  0.59344347  0.53267013  0.02917874    -0.04500
C1346       C  0.58939932  0.51947771  0.04491017    -0.21900
H1347       H  0.58462110  0.48647769  0.54953618     0.19900
H1348       H  0.60203904  0.50918921  0.45427575     0.18700
H1349       H  0.60003829  0.47714584  0.43593940     0.15000
H1350       H  0.58508993  0.51894362  0.06692391     0.14900
H1351       H  0.58511973  0.45922370  0.51804848     0.33000
H1352       H  0.60105250  0.53654645  0.98530261     0.35800
C1353       C  0.98672259  0.41444243  0.32611179     0.21400
C1354       C  0.99977728  0.42121668  0.33921822    -0.38500
C1355       C  0.01422598  0.41702186  0.32738878     0.20400
C1356       C  0.01555114  0.40685518  0.30427952     0.23000
C1357       C  0.00250066  0.40012974  0.29110490    -0.39000
C1358       C  0.98805918  0.40431499  0.30294286     0.21800
N1359       N  0.97168422  0.41711048  0.33242379    -0.32300
C1360       C  0.96339470  0.40873632  0.31296989    -0.09800
C1361       C  0.97319690  0.40049126  0.29438469    -0.28600
N1362       N  0.03054096  0.40479645  0.29697969    -0.45200
C1363       C  0.03882637  0.41370167  0.31557626    -0.04500
C1364       C  0.02906510  0.42155708  0.33480875    -0.21900
H1365       H  0.99874693  0.42929261  0.35708381     0.19900
H1366       H  0.00350686  0.39235380  0.27277355     0.18700
H1367       H  0.96988645  0.39324179  0.27625653     0.15000
H1368       H  0.03238501  0.42948193  0.35190132     0.14900
H1369       H  0.96732452  0.42464018  0.34821567     0.33000
H1370       H  0.03487094  0.39779519  0.28033064     0.35800
C1371       C  0.98686839  0.57760292  0.16980041     0.21400
C1372       C  0.00055827  0.57068622  0.15915553    -0.38500
C1373       C  0.01452683  0.57732392  0.16869736     0.20400
C1374       C  0.01477917  0.58990162  0.18733972     0.23000
C1375       C  0.00111195  0.59678627  0.19799504    -0.39000
C1376       C  0.98717227  0.59014686  0.18850759     0.21800
N1377       N  0.97215400  0.57312263  0.16489865    -0.32300
C1378       C  0.96305864  0.58285510  0.18067772    -0.09800
C1379       C  0.97199471  0.59366774  0.19562068    -0.28600
N1380       N  0.02945649  0.59358780  0.19433524    -0.45200
C1381       C  0.03865189  0.58322251  0.18031350    -0.04500
C1382       C  0.02978796  0.57293873  0.16388150    -0.21900
H1383       H  0.00035142  0.56068600  0.14499470     0.19900
H1384       H  0.00133087  0.60641116  0.21304074     0.18700
H1385       H  0.96795482  0.60263564  0.21025119     0.15000
H1386       H  0.03391635  0.56322501  0.15110994     0.14900
H1387       H  0.96854039  0.56383735  0.15209959     0.33000
H1388       H  0.03298757  0.60228510  0.20862790     0.35800
C1389       C  0.87242124  0.61170730  0.28580124     0.21400
C1390       C  0.85895534  0.61261308  0.30276447    -0.38500
C1391       C  0.85941216  0.62330485  0.32559851     0.20400
C1392       C  0.87221142  0.63254016  0.33090665     0.23000
C1393       C  0.88571630  0.63156462  0.31402622    -0.39000
C1394       C  0.88532899  0.62074665  0.29136004     0.21800
N1395       N  0.87508391  0.60212862  0.26341162    -0.32300
C1396       C  0.88983146  0.60500449  0.25482665    -0.09800
C1397       C  0.89661094  0.61655074  0.27167423    -0.28600
N1398       N  0.86970295  0.64177123  0.35390498    -0.45200
C1399       C  0.85528437  0.63822042  0.36341197    -0.04500
C1400       C  0.84850380  0.62675360  0.34639107    -0.21900
H1401       H  0.84894508  0.60539233  0.29871112     0.19900
H1402       H  0.89583259  0.63857882  0.31841579     0.18700
H1403       H  0.90828899  0.62104835  0.27006412     0.15000
H1404       H  0.83710274  0.62170047  0.34884077     0.14900
H1405       H  0.86747704  0.59390589  0.25492414     0.33000
H1406       H  0.87736322  0.64983147  0.36278326     0.35800
C1407       C  0.88538275  0.61066762  0.07243510     0.21400
C1408       C  0.88657681  0.62187549  0.05050765    -0.38500
C1409       C  0.87289462  0.62499442  0.03479725     0.20400
C1410       C  0.85903769  0.61752793  0.04041029     0.23000
C1411       C  0.85787006  0.60620853  0.06227484    -0.39000
C1412       C  0.87159662  0.60307014  0.07804337     0.21800
N1413       N  0.89651640  0.60630053  0.09138551    -0.32300
C1414       C  0.88983071  0.59583174  0.10925296    -0.09800
C1415       C  0.87431126  0.59340525  0.10151445    -0.28600
N1416       N  0.84763500  0.62292711  0.02284750    -0.45200
C1417       C  0.85432972  0.63389347  0.00602139    -0.04500
C1418       C  0.87007000  0.63546065  0.01279247    -0.21900
H1419       H  0.89730807  0.62794034  0.04634776     0.19900
H1420       H  0.84702206  0.60047853  0.06700265     0.18700
H1421       H  0.86597681  0.58611080  0.11239345     0.15000
H1422       H  0.87859432  0.64297549  0.50282227     0.14900
H1423       H  0.90784449  0.61053442  0.09263941     0.33000
H1424       H  0.83602361  0.61940955  0.02237463     0.35800
C1425       C  0.91144522  0.50651695  0.22448305     0.21400
C1426       C  0.91361673  0.49076117  0.21837242    -0.38500
C1427       C  0.91231855  0.48070332  0.24208070     0.20400
C1428       C  0.90902254  0.48584649  0.26986142     0.23000
C1429       C  0.90691085  0.50167836  0.27604916    -0.39000
C1430       C  0.90830178  0.51179295  0.25225183     0.21800
N1431       N  0.91239793  0.51838122  0.20569064    -0.32300
C1432       C  0.90997553  0.53134719  0.22160149    -0.09800
C1433       C  0.90735351  0.52773905  0.25072919    -0.28600
N1434       N  0.90844964  0.47382025  0.28851604    -0.45200
C1435       C  0.91149028  0.46103233  0.27231278    -0.04500
C1436       C  0.91395930  0.46488505  0.24335113    -0.21900
H1437       H  0.91624030  0.48663420  0.19674850     0.19900
H1438       H  0.90449137  0.50581923  0.29774841     0.18700
H1439       H  0.90525367  0.53572270  0.26842149     0.15000
H1440       H  0.91659765  0.45711577  0.22557184     0.14900
H1441       H  0.91485737  0.51771996  0.18354219     0.33000
H1442       H  0.90621751  0.47427677  0.31076945     0.35800
C1443       C  0.67354784  0.23459866  0.20739674     0.21400
C1444       C  0.67944649  0.24766432  0.22168359    -0.38500
C1445       C  0.67484480  0.26204277  0.21006945     0.20400
C1446       C  0.66515852  0.26325675  0.18602808     0.23000
C1447       C  0.65927969  0.25021556  0.17174602    -0.39000
C1448       C  0.66382235  0.23586156  0.18342222     0.21800
N1449       N  0.67630315  0.21963756  0.21394703    -0.32300
C1450       C  0.66824575  0.21135772  0.19402545    -0.09800
C1451       C  0.66029463  0.22105595  0.17464642    -0.28600
N1452       N  0.66269405  0.27815985  0.17892966    -0.45200
C1453       C  0.67087143  0.28650953  0.19853014    -0.04500
C1454       C  0.67860129  0.27690005  0.21838511    -0.21900
H1455       H  0.68710025  0.24670198  0.24035071     0.19900
H1456       H  0.65177303  0.25118059  0.15286894     0.18700
H1457       H  0.65307290  0.21771767  0.15641703     0.15000
H1458       H  0.68609409  0.28031261  0.23617591     0.14900
H1459       H  0.68330396  0.21532697  0.23076329     0.33000
H1460       H  0.65601628  0.28239360  0.16157418     0.35800
C1461       C  0.63588909  0.36552244  0.29899035     0.21400
C1462       C  0.62178900  0.36696329  0.31388902    -0.38500
C1463       C  0.62089818  0.37920373  0.33372147     0.20400
C1464       C  0.63313839  0.38922759  0.33849693     0.23000
C1465       C  0.64728606  0.38776796  0.32355116    -0.39000
C1466       C  0.64816969  0.37551814  0.30357270     0.21800
N1467       N  0.63936506  0.35518334  0.27827960    -0.32300
C1468       C  0.65392786  0.35862453  0.26939588    -0.09800
C1469       C  0.65989407  0.37118251  0.28477730    -0.28600
N1470       N  0.62942263  0.39966622  0.35901571    -0.45200
C1471       C  0.61474689  0.39621446  0.36729289    -0.04500
C1472       C  0.60902149  0.38356966  0.35191651    -0.21900
H1473       H  0.61218869  0.35916239  0.31020343     0.19900
H1474       H  0.65685360  0.39562174  0.32712245     0.18700
H1475       H  0.67101184  0.37674086  0.28181595     0.15000
H1476       H  0.59787201  0.37800339  0.35443644     0.14900
H1477       H  0.63207467  0.34662108  0.27002901     0.33000
H1478       H  0.63657855  0.40835332  0.36743398     0.35800
C1479       C  0.63174085  0.36456450  0.09023551     0.21400
C1480       C  0.61947921  0.36373961  0.07006466    -0.38500
C1481       C  0.61958183  0.37494624  0.04795112     0.20400
C1482       C  0.63105875  0.38606056  0.04603584     0.23000
C1483       C  0.64324715  0.38694245  0.06628397    -0.39000
C1484       C  0.64309697  0.37580483  0.08844312     0.21800
N1485       N  0.63455950  0.35501515  0.11278783    -0.32300
C1486       C  0.64776816  0.36028875  0.12540261    -0.09800
C1487       C  0.65338371  0.37327051  0.11095257    -0.28600
N1488       N  0.62840490  0.39552034  0.02334522    -0.45200
C1489       C  0.61506722  0.39049852  0.01087519    -0.04500
C1490       C  0.60923890  0.37764797  0.02550365    -0.21900
H1491       H  0.61053492  0.35502463  0.07147191     0.19900
H1492       H  0.65219438  0.39565673  0.06487927     0.18700
H1493       H  0.66388078  0.37964782  0.11568555     0.15000
H1494       H  0.59865088  0.37141429  0.02081763     0.14900
H1495       H  0.62810835  0.34533752  0.11884097     0.33000
H1496       H  0.63501466  0.40509827  0.01722815     0.35800
C1497       C  0.84022261  0.25940760  0.05640994     0.21400
C1498       C  0.84655260  0.24589975  0.06899082    -0.38500
C1499       C  0.83999848  0.23190374  0.05973186     0.20400
C1500       C  0.82810730  0.23138682  0.03936662     0.23000
C1501       C  0.82176952  0.24490194  0.02678674    -0.39000
C1502       C  0.82826987  0.25891210  0.03616556     0.21800
N1503       N  0.84401333  0.27414945  0.06239205    -0.32300
C1504       C  0.83434538  0.28311624  0.04598567    -0.09800
C1505       C  0.82439209  0.27403549  0.02925194    -0.28600
N1506       N  0.82376316  0.21666746  0.03457055    -0.45200
C1507       C  0.83292597  0.20776633  0.05208112    -0.04500
C1508       C  0.84318767  0.21685165  0.06811751    -0.21900
H1509       H  0.85575020  0.24627276  0.08511402     0.19900
H1510       H  0.81264150  0.24441710  0.51133920     0.18700
H1511       H  0.81561394  0.27783445  0.51468608     0.15000
H1512       H  0.85176071  0.21296319  0.08388883     0.14900
H1513       H  0.85238894  0.27788842  0.07726695     0.33000
H1514       H  0.81501865  0.21291852  0.02047351     0.35800
C1515       C  0.88219315  0.37642327  0.40683715     0.21400
C1516       C  0.88167257  0.36303060  0.42399575    -0.38500
C1517       C  0.86899913  0.36202931  0.44280147     0.20400
C1518       C  0.85770141  0.37353443  0.44463722     0.23000
C1519       C  0.85824569  0.38702720  0.42743866    -0.39000
C1520       C  0.87093890  0.38799130  0.40837413     0.21800
N1521       N  0.89284624  0.37979240  0.38671478    -0.32300
C1522       C  0.88840068  0.39357245  0.37508849    -0.09800
C1523       C  0.87480066  0.39914755  0.38809606    -0.28600
N1524       N  0.84701369  0.36980412  0.46468906    -0.45200
C1525       C  0.85160333  0.35583239  0.47552184    -0.04500
C1526       C  0.86524283  0.35063802  0.46235962    -0.21900
H1527       H  0.89046777  0.35399099  0.42266815     0.19900
H1528       H  0.84941811  0.39603712  0.42868534     0.18700
H1529       H  0.86843284  0.40969621  0.38294095     0.15000
H1530       H  0.87176880  0.34012107  0.46705510     0.14900
H1531       H  0.90241209  0.37294918  0.38080865     0.33000
H1532       H  0.83740745  0.37647868  0.47105483     0.35800
C1533       C  0.87514811  0.36242455  0.15155428     0.21400
C1534       C  0.88671553  0.36125148  0.17305868    -0.38500
C1535       C  0.88713072  0.37347699  0.19306467     0.20400
C1536       C  0.87677397  0.38587270  0.19180196     0.23000
C1537       C  0.86527180  0.38708839  0.17023244    -0.39000
C1538       C  0.86490622  0.37491258  0.15017887     0.21800
N1539       N  0.87181507  0.35199183  0.13086705    -0.32300
C1540       C  0.85935530  0.35791495  0.11635610    -0.09800
C1541       C  0.85480627  0.37224218  0.12756279    -0.28600
N1542       N  0.87945858  0.39586096  0.21351820    -0.45200
C1543       C  0.89165574  0.38981758  0.22861636    -0.04500
C1544       C  0.89678424  0.37587637  0.21654512    -0.21900
H1545       H  0.89467497  0.35146502  0.17432725     0.19900
H1546       H  0.85709092  0.39670574  0.16934105     0.18700
H1547       H  0.84499015  0.37938717  0.12089585     0.15000
H1548       H  0.90630036  0.36853249  0.22392185     0.14900
H1549       H  0.87732996  0.34130168  0.12744579     0.33000
H1550       H  0.87345523  0.40621781  0.21766832     0.35800
C1551       C  0.76200373  0.33958968  0.09842115     0.21400
C1552       C  0.74582584  0.34096758  0.09499113    -0.38500
C1553       C  0.73719860  0.34097947  0.12076531     0.20400
C1554       C  0.74410297  0.33975026  0.14792721     0.23000
C1555       C  0.76026927  0.33826008  0.15134270    -0.39000
C1556       C  0.76889497  0.33822181  0.12556920     0.21800
N1557       N  0.77280676  0.33921433  0.07737722    -0.32300
C1558       C  0.78664527  0.33754868  0.09133465    -0.09800
C1559       C  0.78466198  0.33684988  0.12133830    -0.28600
N1560       N  0.73327855  0.33959117  0.16892456    -0.45200
C1561       C  0.71940733  0.34055143  0.15489979    -0.04500
C1562       C  0.72138654  0.34152335  0.12492338    -0.21900
H1563       H  0.74034422  0.34182409  0.07382901     0.19900
H1564       H  0.76572551  0.33708471  0.17247699     0.18700
H1565       H  0.79359008  0.33550410  0.13784167     0.15000
H1566       H  0.71241688  0.34209334  0.10835412     0.14900
H1567       H  0.77088928  0.33993600  0.05499838     0.33000
H1568       H  0.73517684  0.33837776  0.19123803     0.35800
O1569       O  0.84376988  0.30752369  0.56290697    -0.56800
C1570       C  0.85091762  0.34954315  0.59402664     0.75900
O1571       O  0.83232184  0.35335247  0.51277802    -0.57900
C1572       C  0.83431041  0.30004626  0.54723415     0.75800
C1573       C  0.80216968  0.33617945  0.57745381     0.78200
Cd1574     Cd  0.83258219  0.33335607  0.55208054     1.37500
O1575       O  0.85424544  0.33568691  0.58720762    -0.56800
O1576       O  0.81431652  0.33310917  0.59198773    -0.55600
C1577       C  0.84415164  0.34787449  0.49999444     0.78200
O1578       O  0.80383182  0.33808306  0.55031817    -0.58000
O1579       O  0.83955144  0.35585174  0.58093921    -0.56400
O1580       O  0.82428309  0.30795007  0.53321474    -0.56400
O1581       O  0.84971249  0.33532615  0.50995180    -0.55600
O1582       O  0.65230217  0.33925715  0.65858569    -0.56800
C1583       C  0.67238809  0.30366544  0.69768831     0.75900
O1584       O  0.70284438  0.34002768  0.69699514    -0.57900
C1585       C  0.65625334  0.35252440  0.64958405     0.75800
C1586       C  0.66157535  0.35118414  0.74470731     0.78200
Cd1587     Cd  0.67402842  0.33677286  0.69349786     1.37500
O1588       O  0.66472741  0.31135345  0.67902594    -0.56800
O1589       O  0.65435703  0.34105661  0.73037371    -0.55600
C1590       C  0.70462522  0.33993499  0.66967110     0.78200
O1591       O  0.67514713  0.35445877  0.73620656    -0.58000
O1592       O  0.68075951  0.31127572  0.71516200    -0.56400
O1593       O  0.66790513  0.35865827  0.66173815    -0.56400
O1594       O  0.69250940  0.33852551  0.65435054    -0.55600
O1595       O  0.89046711  0.58638777  0.71702763    -0.56800
C1596       C  0.94603333  0.58139037  0.68274242     0.75900
O1597       O  0.91068965  0.55870332  0.72640149    -0.57900
C1598       C  0.89770299  0.59624436  0.73207961     0.75800
C1599       C  0.89775008  0.58922978  0.63531454     0.78200
Cd1600     Cd  0.91283837  0.57824179  0.68803070     1.37500
O1601       O  0.93800958  0.59074479  0.69780082    -0.56800
O1602       O  0.91068303  0.59435779  0.64391271    -0.55600
C1603       C  0.91074032  0.54701576  0.70995410     0.78200
O1604       O  0.89186864  0.57854142  0.65039768    -0.58000
O1605       O  0.93873899  0.57069685  0.66992745    -0.56400
O1606       O  0.91196069  0.59812342  0.72638779    -0.56400
O1607       O  0.91164246  0.54961267  0.68294233    -0.55600
O1608       O  0.91108761  0.39214748  0.76582341    -0.56800
C1609       C  0.94651899  0.40962598  0.80970023     0.75900
O1610       O  0.90896733  0.44143462  0.80959056    -0.57900
C1611       C  0.89868309  0.39729017  0.75427866     0.75800
C1612       C  0.89704475  0.40058062  0.85105600     0.78200
Cd1613     Cd  0.91336351  0.41306677  0.80176513     1.37500
O1614       O  0.93933890  0.40271722  0.78956567    -0.56800
O1615       O  0.90856679  0.39383187  0.83958642    -0.55600
C1616       C  0.91205979  0.44494120  0.78352986     0.78200
O1617       O  0.89300986  0.41351126  0.84022888    -0.58000
O1618       O  0.93836943  0.41779899  0.82673575    -0.56400
O1619       O  0.89283076  0.40945315  0.76513891    -0.56400
O1620       O  0.91578607  0.43391414  0.76686498    -0.55600
O1621       O  0.58827540  0.60107566  0.51915822    -0.56800
C1622       C  0.55493023  0.58192730  0.56009515     0.75900
O1623       O  0.58982750  0.55213698  0.56558251    -0.57900
C1624       C  0.60205116  0.59822595  0.51099267     0.75800
C1625       C  0.60265157  0.59383240  0.60761725     0.78200
Cd1626     Cd  0.58820412  0.58063566  0.55667885     1.37500
O1627       O  0.56219885  0.58864361  0.53995268    -0.56800
O1628       O  0.59104976  0.60007282  0.59516635    -0.55600
C1629       C  0.59196558  0.54870495  0.53918123     0.78200
O1630       O  0.60757706  0.58120840  0.59697127    -0.58000
O1631       O  0.56303519  0.57492165  0.57908536    -0.56400
O1632       O  0.60944040  0.58765705  0.52446371    -0.56400
O1633       O  0.59269766  0.55987975  0.52153140    -0.55600
O1634       O  0.56590158  0.40448023  0.95485436    -0.56800
C1635       C  0.60722410  0.39857476  0.98675825     0.75900
O1636       O  0.61259103  0.41446468  0.90621194    -0.57900
C1637       C  0.55813480  0.41117909  0.93495852     0.75800
C1638       C  0.59172386  0.44756868  0.96202936     0.78200
Cd1639     Cd  0.59112328  0.41585433  0.94208824     1.37500
O1640       O  0.59391897  0.39461052  0.97773475    -0.56800
O1641       O  0.59540751  0.44431077  0.93611373    -0.55600
C1642       C  0.60643068  0.40392522  0.89109375     0.78200
O1643       O  0.58759317  0.43640712  0.97787115    -0.58000
O1644       O  0.61329086  0.41014210  0.97452976    -0.56400
O1645       O  0.56558425  0.42004237  0.91814977    -0.56400
O1646       O  0.59302466  0.39964512  0.89853491    -0.55600
O1647       O  0.85231893  0.65849791  0.89868292    -0.56800
C1648       C  0.83401321  0.69304086  0.94411114     0.75900
O1649       O  0.80290159  0.65893737  0.94209658    -0.57900
C1650       C  0.84765984  0.64573193  0.88834215     0.75800
C1651       C  0.84620146  0.64280702  0.98315758     0.78200
Cd1652     Cd  0.83178014  0.65992916  0.93582224     1.37500
O1653       O  0.84063613  0.68620395  0.92320969    -0.56800
O1654       O  0.85342806  0.65244777  0.96779332    -0.55600
C1655       C  0.80002762  0.65666194  0.91541163     0.78200
O1656       O  0.83186833  0.64121396  0.97752758    -0.58000
O1657       O  0.82644261  0.68463561  0.96141685    -0.56400
O1658       O  0.83598934  0.63961067  0.90023964    -0.56400
O1659       O  0.81162526  0.65583889  0.89878201    -0.55600
O1660       O  0.64638990  0.66031719  0.84313203    -0.56800
C1661       C  0.66608171  0.69453140  0.79870925     0.75900
O1662       O  0.69650000  0.65434956  0.80493243    -0.57900
C1663       C  0.65034337  0.64707473  0.85261457     0.75800
C1664       C  0.65566202  0.64638886  0.75716003     0.78200
Cd1665     Cd  0.66825813  0.66166841  0.80780765     1.37500
O1666       O  0.65792753  0.68755302  0.81729753    -0.56800
O1667       O  0.64933736  0.65820721  0.76832829    -0.55600
C1668       C  0.69970566  0.65877235  0.83050598     0.78200
O1669       O  0.66843679  0.64192202  0.76829898    -0.58000
O1670       O  0.67529042  0.68630118  0.78371150    -0.56400
O1671       O  0.66210357  0.64076305  0.84109080    -0.56400
O1672       O  0.68863608  0.66466310  0.84484153    -0.55600
O1673       O  0.84022898  0.18295178  0.57238771    -0.56800
C1674       C  0.84807557  0.14072716  0.60134509     0.75900
O1675       O  0.80132391  0.15430610  0.55356160    -0.57900
C1676       C  0.83215086  0.19067045  0.55429891     0.75800
C1677       C  0.84240298  0.14305202  0.50690665     0.78200
Cd1678     Cd  0.83006239  0.15735389  0.55856695     1.37500
O1679       O  0.85157845  0.15438416  0.59386554    -0.56800
O1680       O  0.84836498  0.15489262  0.51837411    -0.55600
C1681       C  0.79903010  0.15450384  0.58073701     0.78200
O1682       O  0.82999067  0.13813129  0.51818022    -0.58000
O1683       O  0.83652317  0.13471383  0.58870426    -0.56400
O1684       O  0.82310768  0.18304351  0.53805201    -0.56400
O1685       O  0.81086046  0.15601857  0.59681673    -0.55600
O1686       O  0.66025588  0.18742610  0.67438250    -0.56800
C1687       C  0.65042863  0.14535738  0.64711560     0.75900
O1688       O  0.69728646  0.15454865  0.69213355    -0.57900
C1689       C  0.66843049  0.19459318  0.69280522     0.75800
C1690       C  0.65648045  0.14811855  0.74124545     0.78200
Cd1691     Cd  0.66901545  0.16132594  0.68888740     1.37500
O1692       O  0.64728094  0.15921142  0.65416262    -0.56800
O1693       O  0.64971672  0.15894002  0.72745266    -0.55600
C1694       C  0.69957757  0.15642754  0.66518057     0.78200
O1695       O  0.66962596  0.14376450  0.73182973    -0.58000
O1696       O  0.66180248  0.13887479  0.65991940    -0.56400
O1697       O  0.67672828  0.18641485  0.70980715    -0.56400
O1698       O  0.68797282  0.16054729  0.64999716    -0.55600
O1699       O  0.93786916  0.08699687  0.79674637    -0.56800
C1700       C  0.89790387  0.09289354  0.76075071     0.75900
O1701       O  0.91281562  0.05630753  0.77300618    -0.57900
C1702       C  0.94520038  0.07934710  0.81592438     0.75800
C1703       C  0.89581929  0.09030357  0.85751956     0.78200
Cd1704     Cd  0.91210252  0.07694639  0.80867056     1.37500
O1705       O  0.89170211  0.08122033  0.77242717    -0.56800
O1706       O  0.90714413  0.09687609  0.84545919    -0.55600
C1707       C  0.91030639  0.04515426  0.79009532     0.78200
O1708       O  0.89196154  0.07724498  0.84744079    -0.58000
O1709       O  0.91052335  0.09758465  0.77177415    -0.56400
O1710       O  0.93722732  0.07077570  0.83233825    -0.56400
O1711       O  0.90859760  0.04849000  0.81670021    -0.55600
O1712       O  0.90924290  0.88940854  0.72831239    -0.56800
C1713       C  0.94586211  0.91024161  0.69190424     0.75900
O1714       O  0.89240437  0.91268918  0.65595995    -0.57900
C1715       C  0.89641721  0.89419712  0.73854128     0.75800
C1716       C  0.91007454  0.94308757  0.71691988     0.78200
Cd1717     Cd  0.91241548  0.91187318  0.69544155     1.37500
O1718       O  0.93849321  0.90246541  0.71057706    -0.56800
O1719       O  0.91131985  0.93147076  0.73353109    -0.55600
C1720       C  0.89740448  0.90064105  0.64328150     0.78200
O1721       O  0.90967704  0.94040371  0.68987230    -0.58000
O1722       O  0.93780039  0.91835193  0.67443670    -0.56400
O1723       O  0.89095283  0.90672608  0.72827454    -0.56400
O1724       O  0.90950878  0.89436427  0.65387624    -0.55600
O1725       O  0.56126831  0.09472228  0.95378237    -0.56800
C1726       C  0.60202361  0.09942443  0.98590909     0.75900
O1727       O  0.58495697  0.06299540  0.97608520    -0.57900
C1728       C  0.55328062  0.08763620  0.93498115     0.75800
C1729       C  0.60284104  0.09525581  0.88907129     0.78200
Cd1730     Cd  0.58659387  0.08354219  0.93961668     1.37500
O1731       O  0.59034555  0.10539512  0.97314828    -0.56800
O1732       O  0.59080573  0.10167410  0.89930590    -0.55600
C1733       C  0.58792915  0.05181000  0.95927660     0.78200
O1734       O  0.60729237  0.08282769  0.90131986    -0.58000
O1735       O  0.60689153  0.08652429  0.97649270    -0.56400
O1736       O  0.56066611  0.07888975  0.91770806    -0.56400
O1737       O  0.59012468  0.05513058  0.93277771    -0.55600
O1738       O  0.56162863  0.90843271  0.53981514    -0.56800
C1739       C  0.60126395  0.90095565  0.50400620     0.75900
O1740       O  0.58967358  0.94602887  0.55996057    -0.57900
C1741       C  0.55496059  0.91476183  0.56119364     0.75800
C1742       C  0.60533635  0.90327978  0.59870408     0.78200
Cd1743     Cd  0.58778062  0.91745166  0.55169047     1.37500
O1744       O  0.58795008  0.89730962  0.51330876    -0.56800
O1745       O  0.59366903  0.89701927  0.58698689    -0.55600
C1746       C  0.58890079  0.94951479  0.53324086     0.78200
O1747       O  0.60878237  0.91669108  0.58971218    -0.58000
O1748       O  0.60820014  0.91179079  0.51709538    -0.56400
O1749       O  0.56349497  0.92216533  0.57871242    -0.56400
O1750       O  0.58788175  0.93835857  0.51564620    -0.55600
O1751       O  0.83842156  0.80934874  0.93247252    -0.56800
C1752       C  0.84525488  0.84761296  0.89592290     0.75900
O1753       O  0.79949840  0.83697094  0.94848960    -0.57900
C1754       C  0.83039010  0.80201728  0.95069569     0.75800
C1755       C  0.84250094  0.85088644  0.99255076     0.78200
Cd1756     Cd  0.82840838  0.83513264  0.94368336     1.37500
O1757       O  0.84717333  0.83354860  0.90321757    -0.56800
O1758       O  0.84971309  0.84110299  0.97723428    -0.55600
C1759       C  0.79719468  0.84031932  0.92200585     0.78200
O1760       O  0.82836634  0.85332936  0.98602408    -0.58000
O1761       O  0.83598832  0.85569257  0.91106961    -0.56400
O1762       O  0.82123062  0.80995993  0.96626869    -0.56400
O1763       O  0.80910692  0.84151566  0.90633822    -0.55600
O1764       O  0.65840379  0.81086225  0.81348564    -0.56800
C1765       C  0.64991795  0.85249757  0.84517139     0.75900
O1766       O  0.69723495  0.84237429  0.80226659    -0.57900
C1767       C  0.66697895  0.80356404  0.79581088     0.75800
C1768       C  0.65868418  0.85126895  0.74988179     0.78200
Cd1769     Cd  0.66892626  0.83657288  0.80318204     1.37500
O1770       O  0.64598669  0.83941148  0.83533233    -0.56800
O1771       O  0.65218851  0.83945151  0.76032712    -0.55600
C1772       C  0.69957653  0.83842102  0.82846852     0.78200
O1773       O  0.67047729  0.85621720  0.76343405    -0.58000
O1774       O  0.66227692  0.85821619  0.83522980    -0.56400
O1775       O  0.67637950  0.81152176  0.78102288    -0.56400
O1776       O  0.68799872  0.83338689  0.84225105    -0.55600
O1777       O  0.06414250  0.40666252  0.79739213    -0.56800
C1778       C  0.10167276  0.39888327  0.76617925     0.75900
O1779       O  0.09975128  0.43809110  0.78211632    -0.57900
C1780       C  0.05600855  0.41460690  0.81476940     0.75800
C1781       C  0.10369641  0.40395282  0.86387238     0.78200
Cd1782     Cd  0.08944399  0.41733006  0.81258149     1.37500
O1783       O  0.08960348  0.40723548  0.76295995    -0.56800
O1784       O  0.09089557  0.39924020  0.85371028    -0.55600
C1785       C  0.09538672  0.44920422  0.79796819     0.78200
O1786       O  0.10983150  0.41532790  0.85099686    -0.58000
O1787       O  0.10819583  0.39907256  0.79085640    -0.56400
O1788       O  0.06328271  0.42360748  0.83158179    -0.56400
O1789       O  0.08908861  0.44569118  0.82180570    -0.55600
O1790       O  0.08977378  0.60210783  0.73056391    -0.56800
C1791       C  0.05555389  0.58208337  0.68403393     0.75900
O1792       O  0.10876608  0.57931866  0.65597627    -0.57900
C1793       C  0.10238620  0.59759506  0.74220743     0.75800
C1794       C  0.09039878  0.54908499  0.71644156     0.78200
Cd1795     Cd  0.08851970  0.58028972  0.69499467     1.37500
O1796       O  0.06244994  0.59147375  0.70066087    -0.56800
O1797       O  0.08314257  0.55970420  0.72973750    -0.55600
C1798       C  0.10368313  0.59132073  0.64309544     0.78200
O1799       O  0.09668508  0.55272499  0.69258331    -0.58000
O1800       O  0.06390909  0.57185307  0.67183647    -0.56400
O1801       O  0.10868485  0.58562725  0.73150704    -0.56400
O1802       O  0.09172561  0.59768610  0.65373089    -0.55600
O1803       O  0.15793963  0.30887222  0.57889227    -0.56800
C1804       C  0.14856904  0.34524146  0.61231499     0.75900
O1805       O  0.19676317  0.33245084  0.56373400    -0.57900
C1806       C  0.16546731  0.30151855  0.55976884     0.75800
C1807       C  0.15550708  0.35016089  0.51532028     0.78200
Cd1808     Cd  0.16793723  0.33451284  0.56610123     1.37500
O1809       O  0.15759408  0.33367575  0.61540401    -0.56800
O1810       O  0.14953557  0.33798959  0.52550531    -0.55600
C1811       C  0.19934684  0.34062697  0.58597749     0.78200
O1812       O  0.16787950  0.35477750  0.52748882    -0.58000
O1813       O  0.14800834  0.35152258  0.58749801    -0.56400
O1814       O  0.17395578  0.30941176  0.54309562    -0.56400
O1815       O  0.18760886  0.34681037  0.59777221    -0.55600
O1816       O  0.34239565  0.31150691  0.69258120    -0.56800
C1817       C  0.34833416  0.35129340  0.65105841     0.75900
O1818       O  0.30207983  0.34480185  0.69652358    -0.57900
C1819       C  0.33231737  0.30442928  0.70737000     0.75800
C1820       C  0.34153634  0.35185248  0.74892410     0.78200
Cd1821     Cd  0.33019317  0.33726080  0.69636332     1.37500
O1822       O  0.35038808  0.33727007  0.65830007    -0.56800
O1823       O  0.32989789  0.35754234  0.73556562    -0.55600
C1824       C  0.29929191  0.33905794  0.67173277     0.78200
O1825       O  0.34732612  0.33956124  0.73854501    -0.58000
O1826       O  0.33827861  0.35889765  0.66517185    -0.56400
O1827       O  0.32137905  0.31256440  0.71793292    -0.56400
O1828       O  0.31054948  0.33245134  0.65909390    -0.55600
O1829       O  0.16187886  0.68585250  0.93128277    -0.56800
C1830       C  0.15260206  0.64514757  0.90078210     0.75900
O1831       O  0.19953412  0.65657893  0.95084530    -0.57900
C1832       C  0.16869059  0.69308192  0.95144338     0.75800
C1833       C  0.15730782  0.64406319  0.99489282     0.78200
Cd1834     Cd  0.17062773  0.65979550  0.94541360     1.37500
O1835       O  0.14991983  0.65909087  0.90791936    -0.56800
O1836       O  0.15043859  0.65506967  0.98182963    -0.55600
C1837       C  0.20199259  0.65611726  0.92374616     0.78200
O1838       O  0.17086673  0.64064332  0.98620554    -0.58000
O1839       O  0.16339227  0.63811407  0.91437624    -0.56400
O1840       O  0.17621394  0.68494260  0.96972068    -0.56400
O1841       O  0.19018261  0.65713850  0.90742649    -0.55600
O1842       O  0.34486349  0.68398217  0.82639647    -0.56800
C1843       C  0.34932274  0.64297779  0.86275440     0.75900
O1844       O  0.30444436  0.65422763  0.81436205    -0.57900
C1845       C  0.33648318  0.69166977  0.80875985     0.75800
C1846       C  0.34499884  0.64314354  0.76633217     0.78200
Cd1847     Cd  0.33295156  0.65887435  0.81704617     1.37500
O1848       O  0.35369701  0.65608351  0.85370099    -0.56800
O1849       O  0.35151631  0.65479444  0.77741737    -0.55600
C1850       C  0.30200248  0.65814293  0.84050354     0.78200
O1851       O  0.33228422  0.63903955  0.77763555    -0.58000
O1852       O  0.33784837  0.63696810  0.84991106    -0.56400
O1853       O  0.32649541  0.68418045  0.79427692    -0.56400
O1854       O  0.31361148  0.66273301  0.85493191    -0.55600
O1855       O  0.41208448  0.39163250  0.98328619    -0.56800
C1856       C  0.44868735  0.40819765  0.93817510     0.75900
O1857       O  0.39536130  0.41430984  0.90811444    -0.57900
C1858       C  0.39978821  0.39749824  0.99378262     0.75800
C1859       C  0.41512599  0.44389659  0.96713331     0.78200
Cd1860     Cd  0.41561772  0.41245642  0.94706586     1.37500
O1861       O  0.44143952  0.40101905  0.95780169    -0.56800
O1862       O  0.41107657  0.44079721  0.94128413    -0.55600
C1863       C  0.39757094  0.40062695  0.89905224     0.78200
O1864       O  0.41950954  0.43263701  0.98286095    -0.58000
O1865       O  0.44063667  0.41705597  0.92194635    -0.56400
O1866       O  0.39488989  0.41000082  0.98254183    -0.56400
O1867       O  0.40844811  0.39297361  0.91103682    -0.55600
O1868       O  0.43706365  0.58533438  0.54811712    -0.56800
C1869       C  0.39526491  0.59350395  0.52424826     0.75900
O1870       O  0.41105079  0.54711640  0.57233094    -0.57900
C1871       C  0.44544134  0.57785224  0.56602729     0.75800
C1872       C  0.39824090  0.58818113  0.61940664     0.78200
Cd1873     Cd  0.41195801  0.57577845  0.56669708     1.37500
O1874       O  0.40871192  0.59743952  0.53262339    -0.56800
O1875       O  0.40922318  0.59467219  0.60612247    -0.55600
C1876       C  0.40929562  0.54455934  0.54542075     0.78200
O1877       O  0.39386528  0.57525796  0.60942422    -0.58000
O1878       O  0.38942796  0.58167670  0.53608910    -0.56400
O1879       O  0.43839854  0.56964949  0.58447773    -0.56400
O1880       O  0.40812287  0.55627794  0.52906992    -0.55600
O1881       O  0.14882475  0.83769287  0.90533826    -0.56800
C1882       C  0.16905696  0.80256741  0.94538713     0.75900
O1883       O  0.19913048  0.83916082  0.94878467    -0.57900
C1884       C  0.15164565  0.85151620  0.89792605     0.75800
C1885       C  0.15815556  0.85084150  0.99262003     0.78200
Cd1886     Cd  0.17043055  0.83603580  0.94132934     1.37500
O1887       O  0.16205818  0.81006680  0.92555075    -0.56800
O1888       O  0.15142461  0.83966917  0.98027691    -0.55600
C1889       C  0.20211677  0.83943384  0.92189543     0.78200
O1890       O  0.17102174  0.85496624  0.98203646    -0.58000
O1891       O  0.17650952  0.81047767  0.96380473    -0.56400
O1892       O  0.16285478  0.85807177  0.91070767    -0.56400
O1893       O  0.19063041  0.83859051  0.90477194    -0.55600
O1894       O  0.34568575  0.80749463  0.83028615    -0.56800
C1895       C  0.35155792  0.84875265  0.86660929     0.75900
O1896       O  0.33383967  0.85343799  0.78223163    -0.57900
C1897       C  0.33714198  0.80060460  0.81204433     0.75800
C1898       C  0.30344747  0.83519745  0.84428035     0.78200
Cd1899     Cd  0.33454467  0.83343800  0.82145030     1.37500
O1900       O  0.35561080  0.83535429  0.85814522    -0.56800
O1901       O  0.31502380  0.83095982  0.85944185    -0.55600
C1902       C  0.34635316  0.84886714  0.77051476     0.78200
O1903       O  0.30605447  0.83854682  0.81793603    -0.58000
O1904       O  0.34015272  0.85506258  0.85364429    -0.56400
O1905       O  0.32751770  0.80889043  0.79786207    -0.56400
O1906       O  0.35282950  0.83701321  0.78149146    -0.55600
O1907       O  0.40978467  0.89443667  0.53780910    -0.56800
C1908       C  0.44565947  0.91300895  0.57353088     0.75900
O1909       O  0.41096137  0.94477730  0.57870100    -0.57900
C1910       C  0.39663796  0.89862699  0.52790606     0.75800
C1911       C  0.39767413  0.90461908  0.62398685     0.78200
Cd1912     Cd  0.41220906  0.91619323  0.57199178     1.37500
O1913       O  0.43741095  0.90634486  0.55458518    -0.56800
O1914       O  0.40933022  0.89818429  0.61238742    -0.55600
C1915       C  0.40993874  0.94769206  0.55178008     0.78200
O1916       O  0.39282540  0.91708437  0.61239515    -0.58000
O1917       O  0.43849525  0.92097260  0.59234344    -0.56400
O1918       O  0.39038753  0.91046608  0.53931205    -0.56400
O1919       O  0.40956503  0.93620011  0.53488021    -0.55600
O1920       O  0.43661686  0.09172041  0.96048289    -0.56800
C1921       C  0.39543081  0.09637761  0.99483791     0.75900
O1922       O  0.40611899  0.09969801  0.91275916    -0.57900
C1923       C  0.44397232  0.08490707  0.94042661     0.75800
C1924       C  0.41145085  0.04844848  0.97114613     0.78200
Cd1925     Cd  0.41130840  0.07998849  0.94979282     1.37500
O1926       O  0.40936351  0.09937370  0.98833732    -0.56800
O1927       O  0.41448463  0.05990386  0.98716722    -0.55600
C1928       C  0.39489573  0.09308886  0.90025159     0.78200
O1929       O  0.40837642  0.05138793  0.94473268    -0.58000
O1930       O  0.38877780  0.08586217  0.98039366    -0.56400
O1931       O  0.43623488  0.07587417  0.92434579    -0.56400
O1932       O  0.39135142  0.07977738  0.90969742    -0.55600
O1933       O  0.14663966  0.15874147  0.60282519    -0.56800
C1934       C  0.16432271  0.19258322  0.55914208     0.75900
O1935       O  0.19673268  0.15667391  0.56304259    -0.57900
C1936       C  0.14981201  0.14503731  0.61090531     0.75800
C1937       C  0.15610964  0.14340466  0.51575899     0.78200
Cd1938     Cd  0.16777361  0.15965437  0.56643217     1.37500
O1939       O  0.15581136  0.18497020  0.57621336    -0.56800
O1940       O  0.14973457  0.15550940  0.52573487    -0.55600
C1941       C  0.19901875  0.15791258  0.59015444     0.78200
O1942       O  0.16866192  0.13909356  0.52793660    -0.58000
O1943       O  0.17431903  0.18496753  0.54479401    -0.56400
O1944       O  0.16087175  0.13818817  0.59804273    -0.56400
O1945       O  0.18709471  0.15993102  0.60565377    -0.55600
O1946       O  0.35103737  0.16077678  0.66030953    -0.56800
C1947       C  0.33237165  0.19533053  0.70401199     0.75900
O1948       O  0.30186734  0.15827537  0.70130560    -0.57900
C1949       C  0.34761005  0.14720853  0.65222265     0.75800
C1950       C  0.34279589  0.14774305  0.75001442     0.78200
Cd1951     Cd  0.33053078  0.16229381  0.69760010     1.37500
O1952       O  0.34228729  0.18772750  0.68949600    -0.56800
O1953       O  0.34938030  0.15895100  0.73761181    -0.55600
C1954       C  0.29943901  0.15985420  0.67426142     0.78200
O1955       O  0.33011708  0.14329806  0.73883318    -0.58000
O1956       O  0.32167326  0.18766926  0.71595072    -0.56400
O1957       O  0.33672613  0.14057235  0.66560830    -0.56400
O1958       O  0.31116580  0.16257958  0.65871002    -0.55600
O1959       O  0.08987243  0.89469407  0.72592786    -0.56800
C1960       C  0.05549052  0.91398929  0.68709746     0.75900
O1961       O  0.09152297  0.94524270  0.68404051    -0.57900
C1962       C  0.10220518  0.89931577  0.73812591     0.75800
C1963       C  0.10499278  0.90431217  0.64103641     0.78200
Cd1964     Cd  0.08873643  0.91656836  0.69112122     1.37500
O1965       O  0.06353248  0.90546502  0.70387259    -0.56800
O1966       O  0.09167252  0.89984858  0.64860423    -0.55600
C1967       C  0.09088648  0.94810934  0.71100529     0.78200
O1968       O  0.11087673  0.91512488  0.65584822    -0.58000
O1969       O  0.06281878  0.92349941  0.67141527    -0.56400
O1970       O  0.10841427  0.91133764  0.72782196    -0.56400
O1971       O  0.08929810  0.93663768  0.72773782    -0.55600
O1972       O  0.06223123  0.08874399  0.79947465    -0.56800
C1973       C  0.10261114  0.09808821  0.77195438     0.75900
O1974       O  0.10786409  0.07783005  0.85472130    -0.57900
C1975       C  0.05467778  0.08081204  0.81758569     0.75800
C1976       C  0.09139036  0.04859248  0.79093801     0.78200
Cd1977     Cd  0.08799407  0.07921137  0.81460432     1.37500
O1978       O  0.09000346  0.10252432  0.78352118    -0.56800
O1979       O  0.09063594  0.06056937  0.77517690    -0.55600
C1980       C  0.10300584  0.09007323  0.86693442     0.78200
O1981       O  0.09077980  0.05063432  0.81816588    -0.58000
O1982       O  0.10850988  0.08548130  0.78100612    -0.56400
O1983       O  0.06249940  0.07223023  0.83464534    -0.56400
O1984       O  0.09115879  0.09653220  0.85577892    -0.55600
C1985       C  0.09334895  0.98864257  0.72672368     0.21400
C1986       C  0.09410914  0.00464695  0.72121911    -0.38500
C1987       C  0.09379509  0.01423210  0.74586528     0.20400
C1988       C  0.09284903  0.00831926  0.77377809     0.23000
C1989       C  0.09210205  0.99238160  0.77924213    -0.39000
C1990       C  0.09237345  0.98284040  0.75470092     0.21800
N1991       N  0.09307745  0.97703629  0.70719173    -0.32300
C1992       C  0.09188660  0.96383612  0.72304634    -0.09800
C1993       C  0.09144213  0.96701417  0.75266820    -0.28600
N1994       N  0.09223150  0.01978067  0.79343914    -0.45200
C1995       C  0.09270223  0.03311223  0.77796225    -0.04500
C1996       C  0.09374059  0.03015609  0.74823239    -0.21900
H1997       H  0.09467938  0.00929639  0.69941193     0.19900
H1998       H  0.09116057  0.98774944  0.80101047     0.18700
H1999       H  0.09040636  0.95881780  0.77036289     0.15000
H2000       H  0.09404225  0.03853433  0.73072230     0.14900
H2001       H  0.09350632  0.97802913  0.68460629     0.33000
H2002       H  0.09118069  0.01861321  0.81591739     0.35800
C2003       C  0.12501224  0.11090897  0.71223866     0.21400
C2004       C  0.13638849  0.10950864  0.69083254    -0.38500
C2005       C  0.13643209  0.12126979  0.66998688     0.20400
C2006       C  0.12600837  0.13361382  0.67039948     0.23000
C2007       C  0.11445928  0.13495987  0.69180615    -0.39000
C2008       C  0.11436344  0.12306875  0.71272092     0.21800
N2009       N  0.12245259  0.10096886  0.73396711    -0.32300
C2010       C  0.10997444  0.10664573  0.74834778    -0.09800
C2011       C  0.10458140  0.12048556  0.73591143    -0.28600
N2012       N  0.12907011  0.14358894  0.64871841    -0.45200
C2013       C  0.14150385  0.13743445  0.63462997    -0.04500
C2014       C  0.14629955  0.12348118  0.64710422    -0.21900
H2015       H  0.14465173  0.09995533  0.69049560     0.19900
H2016       H  0.10622280  0.14453354  0.69219132     0.18700
H2017       H  0.09462020  0.12740970  0.74238718     0.15000
H2018       H  0.15609917  0.11624439  0.64094932     0.14900
H2019       H  0.12853004  0.09063863  0.73817536     0.33000
H2020       H  0.12334772  0.15407913  0.64424731     0.35800
C2021       C  0.12819849  0.10278533  0.92415899     0.21400
C2022       C  0.14174740  0.10345878  0.94146985    -0.38500
C2023       C  0.14278794  0.11635177  0.96011791     0.20400
C2024       C  0.13119363  0.12759340  0.96129283     0.23000
C2025       C  0.11771605  0.12687689  0.94421193    -0.39000
C2026       C  0.11670024  0.11410344  0.92569374     0.21800
N2027       N  0.12459545  0.09222005  0.90369840    -0.32300
C2028       C  0.11075934  0.09701369  0.89225314    -0.09800
C2029       C  0.10548573  0.11053623  0.90556426    -0.28600
N2030       N  0.13479991  0.13866701  0.98049423    -0.45200
C2031       C  0.14879488  0.13456334  0.99189817    -0.04500
C2032       C  0.15420954  0.12067567  0.97975330    -0.21900
H2033       H  0.15084767  0.09472015  0.94028656     0.19900
H2034       H  0.10873132  0.13574926  0.94503143     0.18700
H2035       H  0.09510871  0.11722022  0.90036593     0.15000
H2036       H  0.16487771  0.11447550  0.98494730     0.14900
H2037       H  0.13134831  0.08271092  0.89722741     0.33000
H2038       H  0.12798913  0.14833503  0.98589257     0.35800
C2039       C  0.25898980  0.15739023  0.65620979     0.21400
C2040       C  0.24288704  0.15727170  0.66110139    -0.38500
C2041       C  0.23346006  0.15686270  0.63613192     0.20400
C2042       C  0.23957177  0.15646886  0.60838246     0.23000
C2043       C  0.25567839  0.15660633  0.60348853    -0.39000
C2044       C  0.26510150  0.15715598  0.62845330     0.21800
N2045       N  0.27041140  0.15817900  0.67624638    -0.32300
C2046       C  0.28387052  0.15857443  0.66107521    -0.09800
C2047       C  0.28102877  0.15795254  0.63124581    -0.28600
N2048       N  0.22812460  0.15652641  0.58831284    -0.45200
C2049       C  0.21464105  0.15708528  0.60343797    -0.04500
C2050       C  0.21750651  0.15726259  0.63328787    -0.21900
H2051       H  0.23804488  0.15771550  0.68273225     0.19900
H2052       H  0.26051487  0.15654813  0.58183895     0.18700
H2053       H  0.28949303  0.15818598  0.61393404     0.15000
H2054       H  0.20903830  0.15786193  0.65057192     0.14900
H2055       H  0.26912672  0.15868975  0.69876384     0.33000
H2056       H  0.22940167  0.15650907  0.56577369     0.35800
C2057       C  0.38340229  0.12085849  0.55329388     0.21400
C2058       C  0.38472191  0.13255759  0.57426058    -0.38500
C2059       C  0.37229448  0.13377298  0.59373881     0.20400
C2060       C  0.35965727  0.12393942  0.59257635     0.23000
C2061       C  0.35825664  0.11237881  0.57142482    -0.39000
C2062       C  0.37058650  0.11127225  0.55179893     0.21800
N2063       N  0.39380697  0.11703596  0.53283260    -0.32300
C2064       C  0.38750896  0.10498629  0.51822863    -0.09800
C2065       C  0.37299056  0.10112004  0.52924027    -0.28600
N2066       N  0.34949610  0.12732324  0.61365510    -0.45200
C2067       C  0.35556779  0.13952850  0.62808964    -0.04500
C2068       C  0.36977510  0.14393979  0.61632855    -0.21900
H2069       H  0.39469514  0.14010641  0.57537466     0.19900
H2070       H  0.34833318  0.10475884  0.57042660     0.18700
H2071       H  0.36543928  0.09186352  0.52221347     0.15000
H2072       H  0.37719960  0.15330339  0.62331696     0.14900
H2073       H  0.40450298  0.12181280  0.02928417     0.33000
H2074       H  0.33890246  0.12186098  0.61763485     0.35800
C2075       C  0.35528388  0.12281343  0.80807215     0.21400
C2076       C  0.35562803  0.10932301  0.82532170    -0.38500
C2077       C  0.36849851  0.10771315  0.84412021     0.20400
C2078       C  0.38002641  0.11878380  0.84565802     0.23000
C2079       C  0.37969271  0.13222564  0.82847441    -0.39000
C2080       C  0.36692250  0.13377018  0.80961043     0.21800
N2081       N  0.34477283  0.12671374  0.78746434    -0.32300
C2082       C  0.34988194  0.14014213  0.77563182    -0.09800
C2083       C  0.36359802  0.14495196  0.78905386    -0.28600
N2084       N  0.39092093  0.11471108  0.86527486    -0.45200
C2085       C  0.38640873  0.10092506  0.87641729    -0.04500
C2086       C  0.37246708  0.09611566  0.86370428    -0.21900
H2087       H  0.34664410  0.10064371  0.82395076     0.19900
H2088       H  0.38882595  0.14076770  0.82946471     0.18700
H2089       H  0.37053448  0.15495796  0.78368658     0.15000
H2090       H  0.36596838  0.08575232  0.86857092     0.14900
H2091       H  0.33508092  0.12032917  0.78105095     0.33000
H2092       H  0.40076651  0.12104653  0.87102288     0.35800
C2093       C  0.40867693  0.98227768  0.50928975     0.21400
C2094       C  0.40779227  0.99122516  0.98364911    -0.38500
C2095       C  0.40958440  0.00725149  0.98718062     0.20400
C2096       C  0.41192662  0.01383642  0.51429131     0.23000
C2097       C  0.41306014  0.00493048  0.53978129    -0.39000
C2098       C  0.41127087  0.98889988  0.53622509     0.21800
N2099       N  0.40761948  0.96681480  0.51161607    -0.32300
C2100       C  0.40950350  0.96355911  0.54022480    -0.09800
C2101       C  0.41177725  0.97702652  0.55633180    -0.28600
N2102       N  0.41362652  0.02933317  0.01158496    -0.45200
C2103       C  0.41142777  0.03259739  0.98302719    -0.04500
C2104       C  0.40888962  0.01912043  0.96708377    -0.21900
H2105       H  0.40561612  0.98604781  0.96264378     0.19900
H2106       H  0.41514700  0.01010459  0.56082060     0.18700
H2107       H  0.41381472  0.97796309  0.57946821     0.15000
H2108       H  0.40672793  0.01815724  0.94399155     0.14900
H2109       H  0.40595677  0.95900609  0.99462438     0.33000
H2110       H  0.41497678  0.03717630  0.52871532     0.35800
C2111       C  0.36293110  0.87246435  0.92607221     0.21400
C2112       C  0.36120058  0.88420703  0.94683553    -0.38500
C2113       C  0.37304428  0.88500702  0.96775360     0.20400
C2114       C  0.38570874  0.87495248  0.96784675     0.23000
C2115       C  0.38742390  0.86316945  0.94708610    -0.39000
C2116       C  0.37548454  0.86226759  0.92629996     0.21800
N2117       N  0.35310395  0.86911802  0.90432890    -0.32300
C2118       C  0.35932027  0.85660586  0.89078733    -0.09800
C2119       C  0.37329857  0.85196429  0.90380438    -0.28600
N2120       N  0.39546833  0.87830718  0.98976789    -0.45200
C2121       C  0.38920730  0.89047180  0.50367841    -0.04500
C2122       C  0.37492937  0.89504913  0.99066410    -0.21900
H2123       H  0.35132191  0.89209391  0.94677151     0.19900
H2124       H  0.39726518  0.85523935  0.94722668     0.18700
H2125       H  0.38071237  0.84227253  0.89786381     0.15000
H2126       H  0.36734391  0.90458521  0.99674294     0.14900
H2127       H  0.34258870  0.87477041  0.89942588     0.33000
H2128       H  0.40627260  0.87264762  0.49475060     0.35800
C2129       C  0.35925801  0.87533719  0.71612658     0.21400
C2130       C  0.35972608  0.88923971  0.70013298    -0.38500
C2131       C  0.37258192  0.89088948  0.68166240     0.20400
C2132       C  0.38404355  0.87955670  0.67952678     0.23000
C2133       C  0.38356998  0.86572218  0.69541188    -0.39000
C2134       C  0.37076013  0.86406682  0.71370592     0.21800
N2135       N  0.34859911  0.87108445  0.73582856    -0.32300
C2136       C  0.35347922  0.85708422  0.74604291    -0.09800
C2137       C  0.36718303  0.85229796  0.73258678    -0.28600
N2138       N  0.39470740  0.88350500  0.65982313    -0.45200
C2139       C  0.39000962  0.89737669  0.64893711    -0.04500
C2140       C  0.37629869  0.90248582  0.66218076    -0.21900
H2141       H  0.35073728  0.89806501  0.70185600     0.19900
H2142       H  0.39252464  0.85686551  0.69359633     0.18700
H2143       H  0.37394662  0.84188132  0.73688979     0.15000
H2144       H  0.36961548  0.91287793  0.65729460     0.14900
H2145       H  0.33893794  0.87754312  0.74267544     0.33000
H2146       H  0.40427859  0.87683776  0.65329456     0.35800
C2147       C  0.12402502  0.88742564  0.80008472     0.21400
C2148       C  0.13577100  0.88853533  0.82105145    -0.38500
C2149       C  0.13643623  0.87647853  0.84130945     0.20400
C2150       C  0.12621483  0.86416694  0.84078305     0.23000
C2151       C  0.11428405  0.86313126  0.81987243    -0.39000
C2152       C  0.11360141  0.87527637  0.79951113     0.21800
N2153       N  0.12129520  0.89728701  0.77815514    -0.32300
C2154       C  0.10901397  0.89148915  0.76344321    -0.09800
C2155       C  0.10379108  0.87777540  0.77607951    -0.28600
N2156       N  0.13000096  0.85376636  0.86152370    -0.45200
C2157       C  0.14270039  0.85959625  0.87515018    -0.04500
C2158       C  0.14693931  0.87378425  0.86331809    -0.21900
H2159       H  0.14398599  0.89797160  0.82124208     0.19900
H2160       H  0.10633281  0.85348060  0.81918721     0.18700
H2161       H  0.09420367  0.87062877  0.76903961     0.15000
H2162       H  0.15679346  0.88085684  0.86923974     0.14900
H2163       H  0.12740394  0.90741779  0.77352847     0.33000
H2164       H  0.12458159  0.84320586  0.86562000     0.35800
C2165       C  0.13325537  0.86603527  0.54741893     0.21400
C2166       C  0.11929716  0.86776703  0.56262929    -0.38500
C2167       C  0.11880771  0.87994301  0.58262887     0.20400
C2168       C  0.13128379  0.88967072  0.58737926     0.23000
C2169       C  0.14530901  0.88795822  0.57202544    -0.39000
C2170       C  0.14577223  0.87576860  0.55177637     0.21800
N2171       N  0.13636089  0.85561719  0.52661970    -0.32300
C2172       C  0.15090836  0.85876425  0.51732038    -0.09800
C2173       C  0.15723735  0.87121519  0.53257027    -0.28600
N2174       N  0.12788376  0.90006135  0.60827206    -0.45200
C2175       C  0.11316134  0.89681834  0.61674214    -0.04500
C2176       C  0.10713247  0.88442520  0.60111034    -0.21900
H2177       H  0.10949818  0.86019572  0.55908709     0.19900
H2178       H  0.15508703  0.89556423  0.57549455     0.18700
H2179       H  0.16842138  0.87672248  0.02924998     0.15000
H2180       H  0.09586909  0.87908870  0.60361034     0.14900
H2181       H  0.12883779  0.84718921  0.51858209     0.33000
H2182       H  0.13523432  0.90854488  0.61674500     0.35800
C2183       C  0.24296269  0.83816907  0.90734155     0.21400
C2184       C  0.25889176  0.83577804  0.91300763    -0.38500
C2185       C  0.26866586  0.83622364  0.88865126     0.20400
C2186       C  0.26301162  0.83883974  0.86083684     0.23000
C2187       C  0.24711317  0.84104396  0.85516754    -0.39000
C2188       C  0.23737266  0.84062079  0.87944321     0.21800
N2189       N  0.23117983  0.83803616  0.92651565    -0.32300
C2190       C  0.21804399  0.84027629  0.91051060    -0.09800
C2191       C  0.22147012  0.84198662  0.88116022    -0.28600
N2192       N  0.27464566  0.83887043  0.84145167    -0.45200
C2193       C  0.28781302  0.83616930  0.85699548    -0.04500
C2194       C  0.28456815  0.83442875  0.88649153    -0.21900
H2195       H  0.26334255  0.83370367  0.93471157     0.19900
H2196       H  0.24264026  0.84292610  0.83342108     0.18700
H2197       H  0.21334516  0.84358580  0.86334378     0.15000
H2198       H  0.29276274  0.83223149  0.90398265     0.14900
H2199       H  0.23197022  0.83604610  0.94885082     0.33000
H2200       H  0.27368576  0.84056493  0.81904611     0.35800
C2201       C  0.41087196  0.48427694  0.98272162     0.21400
C2202       C  0.40693690  0.49988806  0.97767401    -0.38500
C2203       C  0.40851194  0.50964258  0.50185878     0.20400
C2204       C  0.41329975  0.50434156  0.52890112     0.23000
C2205       C  0.41728719  0.48893476  0.03368533    -0.39000
C2206       C  0.41590169  0.47908243  0.00968213     0.21800
N2207       N  0.41011925  0.47245353  0.96376327    -0.32300
C2208       C  0.41470617  0.45969780  0.97889388    -0.09800
C2209       C  0.41845747  0.46338307  0.00751285    -0.28600
N2210       N  0.41362751  0.51599580  0.54820353    -0.45200
C2211       C  0.40913704  0.52883295  0.53328272    -0.04500
C2212       C  0.40583196  0.52534555  0.50433513    -0.21900
H2213       H  0.40301882  0.50402396  0.95664687     0.19900
H2214       H  0.42107494  0.48459882  0.55496792     0.18700
H2215       H  0.42224053  0.45555259  0.02459393     0.15000
H2216       H  0.40227061  0.53329530  0.48728710     0.14900
H2217       H  0.40650221  0.47297951  0.94209556     0.33000
H2218       H  0.41710967  0.51534187  0.56994107     0.35800
C2219       C  0.33309940  0.73232201  0.79501007     0.21400
C2220       C  0.32615886  0.74606919  0.78464827    -0.38500
C2221       C  0.33262995  0.75986882  0.79508629     0.20400
C2222       C  0.34504416  0.75995233  0.81438433     0.23000
C2223       C  0.35199622  0.74622712  0.82468282    -0.39000
C2224       C  0.34553375  0.73245042  0.81425735     0.21800
N2225       N  0.32857903  0.71771021  0.78971893    -0.32300
C2226       C  0.33815766  0.70853101  0.80589018    -0.09800
C2227       C  0.34893866  0.71728962  0.82131207    -0.28600
N2228       N  0.34849375  0.77450615  0.82225269    -0.45200
C2229       C  0.33817792  0.78375319  0.80793605    -0.04500
C2230       C  0.32815778  0.77507615  0.79061857    -0.21900
H2231       H  0.31621835  0.74602409  0.77011955     0.19900
H2232       H  0.36147592  0.74626765  0.84025186     0.18700
H2233       H  0.35768789  0.71314488  0.83651532     0.15000
H2234       H  0.31854929  0.77929043  0.77741895     0.14900
H2235       H  0.31922941  0.71423714  0.77677497     0.33000
H2236       H  0.35704522  0.77790875  0.83707170     0.35800
C2237       C  0.37359206  0.60198706  0.67652408     0.21400
C2238       C  0.36033766  0.60265655  0.69431911    -0.38500
C2239       C  0.35876888  0.61605804  0.71147794     0.20400
C2240       C  0.36961460  0.62781895  0.71095341     0.23000
C2241       C  0.38282294  0.62714940  0.69325837    -0.39000
C2242       C  0.38435792  0.61382028  0.67611692     0.21800
N2243       N  0.37748473  0.59087115  0.65727415    -0.32300
C2244       C  0.39075449  0.59577182  0.64446016    -0.09800
C2245       C  0.39541541  0.60997746  0.65581494    -0.28600
N2246       N  0.36571993  0.63914178  0.72959020    -0.45200
C2247       C  0.35230507  0.63461313  0.74223373    -0.04500
C2248       C  0.34753216  0.62029483  0.73140439    -0.21900
H2249       H  0.35184005  0.59347842  0.69465995     0.19900
H2250       H  0.39125128  0.63639100  0.69273827     0.18700
H2251       H  0.40523995  0.61688087  0.64921316     0.15000
H2252       H  0.33751588  0.61365860  0.73795200     0.14900
H2253       H  0.37119176  0.58089236  0.65235154     0.33000
H2254       H  0.37203058  0.64917278  0.73399385     0.35800
C2255       C  0.36060021  0.61972544  0.92339493     0.21400
C2256       C  0.35941058  0.60775329  0.94385935    -0.38500
C2257       C  0.37085222  0.60756995  0.96563585     0.20400
C2258       C  0.38258883  0.61845079  0.96688555     0.23000
C2259       C  0.38368829  0.63049831  0.94658031    -0.39000
C2260       C  0.37224034  0.63069865  0.92483525     0.21800
N2261       N  0.35121193  0.62244586  0.90054593    -0.32300
C2262       C  0.35686985  0.63529805  0.88753607    -0.09800
C2263       C  0.36997700  0.64077961  0.90200068    -0.28600
N2264       N  0.39249787  0.61525002  0.98874590    -0.45200
C2265       C  0.38701052  0.60224313  0.00143144    -0.04500
C2266       C  0.37347089  0.59716877  0.98782449    -0.21900
H2267       H  0.35037014  0.59911838  0.94270553     0.19900
H2268       H  0.39288166  0.63897721  0.94744703     0.18700
H2269       H  0.37677034  0.65089882  0.89676006     0.15000
H2270       H  0.36685855  0.58687624  0.99270320     0.14900
H2271       H  0.34137656  0.61614350  0.89451738     0.33000
H2272       H  0.40261749  0.62124045  0.99411420     0.35800
C2273       C  0.16363214  0.73371264  0.93955007     0.21400
C2274       C  0.15879595  0.74703782  0.92438618    -0.38500
C2275       C  0.16368569  0.76117587  0.93607013     0.20400
C2276       C  0.17276814  0.76199838  0.96092101     0.23000
C2277       C  0.17769331  0.74862873  0.97604235    -0.39000
C2278       C  0.17274012  0.73444726  0.96438627     0.21800
N2279       N  0.16072624  0.71893387  0.93247469    -0.32300
C2280       C  0.16808550  0.71011968  0.95278345    -0.09800
C2281       C  0.17567366  0.71936403  0.97319739    -0.28600
N2282       N  0.17583003  0.77685751  0.96751726    -0.45200
C2283       C  0.16861131  0.78551363  0.94672757    -0.04500
C2284       C  0.16094769  0.77613739  0.92671361    -0.21900
H2285       H  0.15176088  0.74643284  0.90486520     0.19900
H2286       H  0.18487585  0.74922354  0.99537435     0.18700
H2287       H  0.18269028  0.71556488  0.99150183     0.15000
H2288       H  0.15429170  0.77978373  0.90784410     0.14900
H2289       H  0.15441322  0.71506166  0.91449256     0.33000
H2290       H  0.18241657  0.78086269  0.98502771     0.35800
C2291       C  0.24256149  0.65582123  0.90672254     0.21400
C2292       C  0.25853764  0.65805384  0.91144031    -0.38500
C2293       C  0.26793949  0.65722180  0.88663867     0.20400
C2294       C  0.26192928  0.65423513  0.85927758     0.23000
C2295       C  0.24596657  0.65206766  0.85454987    -0.39000
C2296       C  0.23655485  0.65304906  0.87927949     0.21800
N2297       N  0.23108072  0.65671983  0.92643691    -0.32300
C2298       C  0.21768204  0.65469513  0.91130574    -0.09800
C2299       C  0.22064173  0.65231161  0.88189139    -0.28600
N2300       N  0.27326363  0.65415433  0.83926054    -0.45200
C2301       C  0.28656316  0.65724246  0.85396187    -0.04500
C2302       C  0.28372091  0.65922756  0.88354171    -0.21900
H2303       H  0.26326617  0.66050710  0.93275198     0.19900
H2304       H  0.24119063  0.65002515  0.83311873     0.18700
H2305       H  0.21222827  0.65071171  0.86460719     0.15000
H2306       H  0.29209166  0.66176735  0.90048091     0.14900
H2307       H  0.23223585  0.65911546  0.94856214     0.33000
H2308       H  0.27202035  0.65224465  0.81698051     0.35800
C2309       C  0.32687906  0.23580653  0.71682046     0.21400
C2310       C  0.31910208  0.24929083  0.72610071    -0.38500
C2311       C  0.32645664  0.26331987  0.71956861     0.20400
C2312       C  0.34047570  0.26382835  0.70492687     0.23000
C2313       C  0.34822695  0.25035864  0.69562100    -0.39000
C2314       C  0.34087183  0.23635964  0.70210662     0.21800
N2315       N  0.32214502  0.22108492  0.71969618    -0.32300
C2316       C  0.33319106  0.21225178  0.70663407    -0.09800
C2317       C  0.34505187  0.22134506  0.69539414    -0.28600
N2318       N  0.34462065  0.27854997  0.69990262    -0.45200
C2319       C  0.33312562  0.28751021  0.71120060    -0.04500
C2320       C  0.32163837  0.27844457  0.72390686    -0.21900
H2321       H  0.30801179  0.24889880  0.73709249     0.19900
H2322       H  0.35903748  0.25076747  0.68370343     0.18700
H2323       H  0.35524437  0.21749597  0.68361317     0.15000
H2324       H  0.31088126  0.28236593  0.73370767     0.14900
H2325       H  0.31193981  0.21729745  0.72952907     0.33000
H2326       H  0.35436799  0.28226390  0.68846275     0.35800
C2327       C  0.36363345  0.37483045  0.59448956     0.21400
C2328       C  0.36473710  0.38792721  0.57659291    -0.38500
C2329       C  0.37578576  0.38690951  0.55442548     0.20400
C2330       C  0.38508017  0.37387925  0.55044556     0.23000
C2331       C  0.38388785  0.36072842  0.56821347    -0.39000
C2332       C  0.37279592  0.36172408  0.59035926     0.21800
N2333       N  0.35398025  0.37286367  0.61696664    -0.32300
C2334       C  0.35695342  0.35837858  0.62712238    -0.09800
C2335       C  0.36861654  0.35105171  0.61111623    -0.28600
N2336       N  0.39485351  0.37594553  0.52814988    -0.45200
C2337       C  0.39165613  0.39035145  0.51785447    -0.04500
C2338       C  0.37981768  0.39753865  0.53358009    -0.21900
H2339       H  0.35753789  0.39815402  0.57971502     0.19900
H2340       H  0.39107411  0.35049803  0.56505753     0.18700
H2341       H  0.37327365  0.33944690  0.61408265     0.15000
H2342       H  0.37469668  0.40896075  0.03008667     0.14900
H2343       H  0.34571316  0.38079780  0.62465786     0.33000
H2344       H  0.40317167  0.36807836  0.52043651     0.35800
C2345       C  0.35558724  0.37617585  0.80614513     0.21400
C2346       C  0.35795207  0.38998103  0.82180887    -0.38500
C2347       C  0.36996531  0.38947115  0.84271754     0.20400
C2348       C  0.37882892  0.37620969  0.84753651     0.23000
C2349       C  0.37643611  0.36248805  0.83207137    -0.39000
C2350       C  0.36455187  0.36301573  0.81124286     0.21800
N2351       N  0.34559973  0.37377429  0.78395809    -0.32300
C2352       C  0.34843413  0.35903875  0.77489512    -0.09800
C2353       C  0.36008377  0.35198654  0.79153391    -0.28600
N2354       N  0.38973385  0.37866368  0.86786856    -0.45200
C2355       C  0.38791775  0.39360173  0.87623574    -0.04500
C2356       C  0.37564817  0.40077125  0.86114504    -0.21900
H2357       H  0.35117140  0.40040014  0.81765016     0.19900
H2358       H  0.38355579  0.35222310  0.83557370     0.18700
H2359       H  0.36507845  0.34051519  0.78875896     0.15000
H2360       H  0.37150443  0.41260297  0.86330807     0.14900
H2361       H  0.33785915  0.38183326  0.77476273     0.33000
H2362       H  0.39793895  0.37062913  0.87561153     0.35800
C2363       C  0.15786469  0.26113518  0.56615283     0.21400
C2364       C  0.15127587  0.24774857  0.57796652    -0.38500
C2365       C  0.15661159  0.23369222  0.56631569     0.20400
C2366       C  0.16768930  0.23301804  0.54460770     0.23000
C2367       C  0.17419233  0.24642283  0.53263476    -0.39000
C2368       C  0.16883566  0.26049007  0.54425712     0.12200
N2369       N  0.15518282  0.27585078  0.57425079    -0.32300
C2370       C  0.16446435  0.28462499  0.55731323    -0.09800
C2371       C  0.17314538  0.27549115  0.53829011    -0.28600
N2372       N  0.17151925  0.21823809  0.53860259    -0.45200
C2373       C  0.16283268  0.20948502  0.55666859    -0.04500
C2374       C  0.15329570  0.21868578  0.57410081    -0.21900
H2375       H  0.14288228  0.24823004  0.59538999     0.19900
H2376       H  0.18315670  0.24583055  0.01604462     0.18700
H2377       H  0.18166554  0.27929395  0.52265903     0.15000
H2378       H  0.14550483  0.21491631  0.59104148     0.14900
H2379       H  0.14765737  0.27967694  0.59053659     0.33000
H2380       H  0.17987348  0.21436624  0.52383711     0.35800
C2381       C  0.23970019  0.33879907  0.60474961     0.21400
C2382       C  0.25523533  0.33388786  0.60225364    -0.38500
C2383       C  0.26495734  0.33744995  0.62579217     0.20400
C2384       C  0.25965487  0.34532052  0.65003367     0.23000
C2385       C  0.24409632  0.35029872  0.65249468    -0.39000
C2386       C  0.23434496  0.34673295  0.62888597     0.21800
N2387       N  0.22802424  0.33612606  0.58595933    -0.32300
C2388       C  0.21510822  0.34239402  0.59813449    -0.09800
C2389       C  0.21858409  0.34918794  0.62488004    -0.28600
N2390       N  0.27117692  0.34692493  0.66968914    -0.45200
C2391       C  0.28386104  0.34000661  0.65779427    -0.04500
C2392       C  0.28043312  0.33399738  0.63043409    -0.21900
H2393       H  0.25938943  0.32752016  0.58355711     0.19900
H2394       H  0.23984229  0.35627181  0.67156163     0.18700
H2395       H  0.21055089  0.35458889  0.63989580     0.15000
H2396       H  0.28821307  0.32784486  0.61596108     0.14900
H2397       H  0.22870545  0.32997728  0.56647800     0.33000
H2398       H  0.27045028  0.35231035  0.68993862     0.35800
C2399       C  0.12751890  0.63330792  0.84291009     0.21400
C2400       C  0.11582611  0.63472043  0.82153458    -0.38500
C2401       C  0.11456729  0.62214715  0.80227160     0.20400
C2402       C  0.12423227  0.60924274  0.80431733     0.23000
C2403       C  0.13571258  0.60775195  0.82582906    -0.39000
C2404       C  0.13698192  0.62025944  0.84493282     0.21800
N2405       N  0.13167290  0.64386691  0.86291931    -0.32300
C2406       C  0.14383200  0.63740227  0.87762831    -0.09800
C2407       C  0.14740265  0.62267295  0.86713774    -0.28600
N2408       N  0.12115139  0.59911050  0.78307407    -0.45200
C2409       C  0.10936619  0.60546359  0.76733512    -0.04500
C2410       C  0.10485125  0.61983946  0.77865565    -0.21900
H2411       H  0.10847371  0.64494252  0.81970726     0.19900
H2412       H  0.14332397  0.59769967  0.82722285     0.18700
H2413       H  0.15667828  0.61495665  0.87426219     0.15000
H2414       H  0.09582205  0.62757334  0.77057130     0.14900
H2415       H  0.12675865  0.65486667  0.86602476     0.33000
H2416       H  0.12670651  0.58845899  0.77955275     0.35800
C2417       C  0.13183625  0.62843330  0.54845588     0.21400
C2418       C  0.11800781  0.62738877  0.56425521    -0.38500
C2419       C  0.11709331  0.61481685  0.58340269     0.20400
C2420       C  0.12901247  0.60402368  0.58665716     0.23000
C2421       C  0.14290104  0.60506614  0.57075685    -0.39000
C2422       C  0.14383933  0.61771910  0.55154368     0.21800
N2423       N  0.13543233  0.63928079  0.52875735    -0.32300
C2424       C  0.14983078  0.63551065  0.51906155    -0.09800
C2425       C  0.15551347  0.62214014  0.53281391    -0.28600
N2426       N  0.12549509  0.59364682  0.60745475    -0.45200
C2427       C  0.11132550  0.59805046  0.61757783    -0.04500
C2428       C  0.10568339  0.61108466  0.60288619    -0.21900
H2429       H  0.10869879  0.63586414  0.56205054     0.19900
H2430       H  0.15232743  0.59675667  0.57337224     0.18700
H2431       H  0.16651432  0.61627363  0.52912326     0.15000
H2432       H  0.09498365  0.61743007  0.60692883     0.14900
H2433       H  0.12838509  0.64854947  0.52193070     0.33000
H2434       H  0.13257272  0.58459635  0.61518000     0.35800
C2435       C  0.13030087  0.36568061  0.96032832     0.21400
C2436       C  0.11678435  0.36686419  0.94321461    -0.38500
C2437       C  0.11627385  0.37930376  0.92358310     0.20400
C2438       C  0.12827977  0.38981837  0.92121762     0.23000
C2439       C  0.14176191  0.38869448  0.93853681    -0.39000
C2440       C  0.14230041  0.37620527  0.95814842     0.21800
N2441       N  0.13363978  0.35481803  0.98040296    -0.32300
C2442       C  0.14784428  0.35845056  0.99123454    -0.09800
C2443       C  0.15363322  0.37173457  0.97791654    -0.28600
N2444       N  0.12518172  0.40023001  0.90013777    -0.45200
C2445       C  0.11113719  0.39627968  0.88899713    -0.04500
C2446       C  0.10519206  0.38332922  0.90315281    -0.21900
H2447       H  0.10743392  0.35859180  0.94481161     0.19900
H2448       H  0.15120720  0.39684047  0.93664943     0.18700
H2449       H  0.16482785  0.37754423  0.48198786     0.15000
H2450       H  0.09442392  0.37739159  0.89851424     0.14900
H2451       H  0.12656975  0.34564047  0.98670311     0.33000
H2452       H  0.13236514  0.40925116  0.89324563     0.35800
C2453       C  0.12182350  0.37306538  0.71882406     0.21400
C2454       C  0.13306953  0.36205526  0.71065186    -0.38500
C2455       C  0.13360623  0.35863338  0.68094970     0.20400
C2456       C  0.12382185  0.36577026  0.66088468     0.23000
C2457       C  0.11242114  0.37660061  0.66911976    -0.39000
C2458       C  0.11178962  0.37991656  0.69884757     0.21800
N2459       N  0.11946041  0.37889138  0.74546431    -0.32300
C2460       C  0.10778058  0.38943569  0.74236243    -0.09800
C2461       C  0.10262098  0.39034080  0.71368827    -0.28600
N2462       N  0.12754129  0.36148470  0.63377281    -0.45200
C2463       C  0.13967081  0.35145409  0.63671400    -0.04500
C2464       C  0.14370042  0.34925758  0.66576490    -0.21900
H2465       H  0.14106881  0.35684031  0.72614676     0.19900
H2466       H  0.10488441  0.38233076  0.65345728     0.18700
H2467       H  0.09366640  0.39790987  0.70480288     0.15000
H2468       H  0.15330477  0.34244475  0.67442733     0.14900
H2469       H  0.12552305  0.37601868  0.76447698     0.33000
H2470       H  0.12248673  0.36549805  0.61446003     0.35800
C2471       C  0.10004954  0.48439716  0.75880290     0.21400
C2472       C  0.10317845  0.49350737  0.73429501    -0.38500
C2473       C  0.09781997  0.50888808  0.73552635     0.20400
C2474       C  0.08991408  0.51468932  0.75933266     0.23000
C2475       C  0.08678500  0.50558567  0.78382479    -0.39000
C2476       C  0.09217871  0.49022348  0.78263153     0.21800
N2477       N  0.10303142  0.46920578  0.76219298    -0.32300
C2478       C  0.09690652  0.46530495  0.78821857    -0.09800
C2479       C  0.09017941  0.47813324  0.80179826    -0.28600
N2480       N  0.08603223  0.52962844  0.75518998    -0.45200
C2481       C  0.09158276  0.53340398  0.72865708    -0.04500
C2482       C  0.09896562  0.52076843  0.71561286    -0.21900
H2483       H  0.10915890  0.48890031  0.71552064     0.19900
H2484       H  0.08042735  0.51007593  0.80226325     0.18700
H2485       H  0.08381566  0.47836410  0.82201265     0.15000
H2486       H  0.10455970  0.52039007  0.69462449     0.14900
H2487       H  0.10817394  0.46177694  0.74704868     0.33000
H2488       H  0.08016341  0.53688118  0.76970648     0.35800
C2489       C  0.76369047  0.84524379  0.87683314     0.21400
C2490       C  0.75563000  0.84719662  0.85046171    -0.38500
C2491       C  0.73964433  0.84413643  0.85126951     0.20400
C2492       C  0.73229179  0.83952117  0.87647334     0.23000
C2493       C  0.74032239  0.83770974  0.90289956    -0.39000
C2494       C  0.75631284  0.84072880  0.90208027     0.21800
N2495       N  0.77909009  0.84630127  0.88122926    -0.32300
C2496       C  0.78156632  0.84235515  0.90939677    -0.09800
C2497       C  0.76762102  0.83896083  0.92324902    -0.28600
N2498       N  0.71717527  0.83681567  0.87135794    -0.45200
C2499       C  0.71484389  0.83976801  0.84273972    -0.04500
C2500       C  0.72858136  0.84440023  0.82942837    -0.21900
H2501       H  0.76145314  0.85047040  0.83062645     0.19900
H2502       H  0.73461210  0.83384219  0.92247011     0.18700
H2503       H  0.76607396  0.83493234  0.94530273     0.15000
H2504       H  0.73026092  0.84742217  0.80685311     0.14900
H2505       H  0.78748313  0.84891620  0.86568817     0.33000
H2506       H  0.70893539  0.83315854  0.88642696     0.35800
C2507       C  0.51418122  0.90798021  0.55678348     0.21400
C2508       C  0.50032514  0.90250088  0.54451258    -0.38500
C2509       C  0.48664557  0.90678954  0.55898262     0.20400
C2510       C  0.48675792  0.91584670  0.58377986     0.23000
C2511       C  0.50063752  0.92129782  0.59609920    -0.39000
C2512       C  0.51433025  0.91700983  0.58161609     0.21800
N2513       N  0.52865606  0.90589949  0.54663760    -0.32300
C2514       C  0.53808997  0.91364930  0.56512597    -0.09800
C2515       C  0.52961226  0.92072399  0.58726642    -0.28600
N2516       N  0.47216657  0.91888602  0.59262012    -0.45200
C2517       C  0.46272505  0.91175474  0.57324036    -0.04500
C2518       C  0.47132309  0.90401646  0.55204666    -0.21900
H2519       H  0.50018994  0.89563336  0.52486407     0.19900
H2520       H  0.50074668  0.92855886  0.61524104     0.18700
H2521       H  0.53400601  0.92783323  0.60477294     0.15000
H2522       H  0.46693700  0.89765928  0.53353635     0.14900
H2523       H  0.53190083  0.89976947  0.52804741     0.33000
H2524       H  0.46883109  0.92572113  0.61025588     0.35800
C2525       C  0.61217367  0.87838045  0.94222842     0.21400
C2526       C  0.61109744  0.86685596  0.92076465    -0.38500
C2527       C  0.62346851  0.86624034  0.90092709     0.20400
C2528       C  0.63578952  0.87645560  0.90226000     0.23000
C2529       C  0.63685896  0.88790278  0.92362100    -0.39000
C2530       C  0.62465400  0.88839545  0.94352693     0.21800
N2531       N  0.60215732  0.88132878  0.96395424    -0.32300
C2532       C  0.60845331  0.89324903  0.97904089    -0.09800
C2533       C  0.62245812  0.89790917  0.96698864    -0.28600
N2534       N  0.64637376  0.87315989  0.88186162    -0.45200
C2535       C  0.64092823  0.86060940  0.86759531    -0.04500
C2536       C  0.62661005  0.85597787  0.87868014    -0.21900
H2537       H  0.60152153  0.85880626  0.91990004     0.19900
H2538       H  0.64663598  0.89569257  0.92495896     0.18700
H2539       H  0.62980428  0.90740383  0.47381855     0.15000
H2540       H  0.61972965  0.84614430  0.87203170     0.14900
H2541       H  0.59171535  0.87564998  0.96819949     0.33000
H2542       H  0.65695423  0.87872842  0.87860921     0.35800
C2543       C  0.63195182  0.88939437  0.65321662     0.21400
C2544       C  0.64450723  0.88976278  0.67294646    -0.38500
C2545       C  0.64644201  0.87651217  0.69051945     0.20400
C2546       C  0.63662284  0.86392009  0.68842055     0.23000
C2547       C  0.62419864  0.86351763  0.66867264    -0.39000
C2548       C  0.62224698  0.87671406  0.65128784     0.21800
N2549       N  0.62721676  0.90065102  0.63476976    -0.32300
C2550       C  0.61439966  0.89502484  0.62121733    -0.09800
C2551       C  0.61101277  0.88012890  0.63088781    -0.28600
N2552       N  0.64021523  0.85319235  0.70851810    -0.45200
C2553       C  0.65238360  0.85891905  0.72373403    -0.04500
C2554       C  0.65672737  0.87341163  0.71303858    -0.21900
H2555       H  0.65197669  0.89974216  0.67493024     0.19900
H2556       H  0.61638229  0.85377091  0.66742019     0.18700
H2557       H  0.60151585  0.87281435  0.62402638     0.15000
H2558       H  0.66566436  0.88095155  0.72148287     0.14900
H2559       H  0.63230674  0.91148513  0.63171108     0.33000
H2560       H  0.63435756  0.84282980  0.71234727     0.35800
C2561       C  0.48440073  0.09359540  0.94576165     0.21400
C2562       C  0.49801223  0.09901090  0.95913898    -0.38500
C2563       C  0.51201679  0.09461607  0.94582418     0.20400
C2564       C  0.51242022  0.08552467  0.92108119     0.23000
C2565       C  0.49880564  0.08015671  0.90765980    -0.39000
C2566       C  0.48480497  0.08451988  0.92099941     0.21800
N2567       N  0.46972557  0.09533276  0.95519663    -0.32300
C2568       C  0.46074965  0.08718800  0.93647566    -0.09800
C2569       C  0.46970882  0.08038397  0.91470628    -0.28600
N2570       N  0.52717866  0.08222852  0.91360924    -0.45200
C2571       C  0.53623553  0.08924903  0.93374769    -0.04500
C2572       C  0.52720969  0.09716448  0.95411498    -0.21900
H2573       H  0.49773485  0.10578433  0.97889745     0.19900
H2574       H  0.49911172  0.07275462  0.88871425     0.18700
H2575       H  0.46578051  0.07291453  0.89734490     0.15000
H2576       H  0.53121610  0.10343535  0.97302591     0.14900
H2577       H  0.46610686  0.10118997  0.97385259     0.33000
H2578       H  0.53085554  0.07527608  0.89635953     0.35800
C2579       C  0.58831237  0.01657848  0.00028358     0.21400
C2580       C  0.58716285  0.00721154  0.52520674    -0.38500
C2581       C  0.58829090  0.99116357  0.52051758     0.20400
C2582       C  0.59039243  0.98495904  0.49310046     0.23000
C2583       C  0.59150130  0.99431429  0.96819728    -0.39000
C2584       C  0.59046478  0.01035272  0.97289916     0.21800
N2585       N  0.58727112  0.03211465  0.99884625    -0.32300
C2586       C  0.58876397  0.03581013  0.97036291    -0.09800
C2587       C  0.59086416  0.02255320  0.95349639    -0.28600
N2588       N  0.59083332  0.96940566  0.49430483    -0.45200
C2589       C  0.58915294  0.96563668  0.52269789    -0.04500
C2590       C  0.58751970  0.97889828  0.53977534    -0.21900
H2591       H  0.58535373  0.01207060  0.54658986     0.19900
H2592       H  0.59303751  0.98944970  0.94674463     0.18700
H2593       H  0.59223400  0.02192192  0.93018343     0.15000
H2594       H  0.58585181  0.97947447  0.56302311     0.14900
H2595       H  0.58550684  0.03973698  0.01615429     0.33000
H2596       H  0.59224342  0.96180307  0.47686678     0.35800
C2597       C  0.98627275  0.91588995  0.67817545     0.21400
C2598       C  0.99934055  0.92228224  0.66468159    -0.38500
C2599       C  0.01381331  0.91737307  0.67570378     0.20400
C2600       C  0.01514518  0.90691518  0.69844787     0.23000
C2601       C  0.00207996  0.90060358  0.71206776    -0.39000
C2602       C  0.98760808  0.90548361  0.70100008     0.21800
N2603       N  0.97124233  0.91873434  0.67182246    -0.32300
C2604       C  0.96295187  0.91009356  0.69074527    -0.09800
C2605       C  0.97274150  0.90167139  0.70931435    -0.28600
N2606       N  0.03016611  0.90419346  0.70500991    -0.45200
C2607       C  0.03844890  0.91302433  0.68639449    -0.04500
C2608       C  0.02867588  0.92141642  0.66776738    -0.21900
H2609       H  0.99831274  0.93049037  0.64695485     0.19900
H2610       H  0.00310912  0.89250927  0.72997700     0.18700
H2611       H  0.96942460  0.89393836  0.72669882     0.15000
H2612       H  0.03199838  0.92949189  0.65094283     0.14900
H2613       H  0.96688747  0.92620946  0.65579964     0.33000
H2614       H  0.03451398  0.89695114  0.72141396     0.35800
C2615       C  0.87259447  0.88198894  0.79702869     0.21400
C2616       C  0.86116403  0.88365021  0.81831114    -0.38500
C2617       C  0.85953622  0.87103002  0.83706440     0.20400
C2618       C  0.86852056  0.85766975  0.83482532     0.23000
C2619       C  0.88012425  0.85605803  0.81361894    -0.39000
C2620       C  0.88182874  0.86878877  0.79485459     0.21800
N2621       N  0.87643292  0.89244560  0.77683105    -0.32300
C2622       C  0.88831276  0.88598643  0.76178460    -0.09800
C2623       C  0.89205893  0.87122620  0.77233420    -0.28600
N2624       N  0.86456099  0.84737927  0.85543871    -0.45200
C2625       C  0.85311786  0.85442953  0.87089223    -0.04500
C2626       C  0.84967374  0.86913144  0.86005111    -0.21900
H2627       H  0.85408949  0.89405120  0.82020926     0.19900
H2628       H  0.88731763  0.84572847  0.81194061     0.18700
H2629       H  0.90110818  0.86343951  0.76474648     0.15000
H2630       H  0.84108809  0.87733640  0.86797778     0.14900
H2631       H  0.87148186  0.90345588  0.77385396     0.33000
H2632       H  0.86941144  0.83637611  0.85895474     0.35800
C2633       C  0.86867104  0.86520929  0.54630233     0.21400
C2634       C  0.88246600  0.86569005  0.56260764    -0.38500
C2635       C  0.88340112  0.87767374  0.58298677     0.20400
C2636       C  0.87154319  0.88845052  0.58680643     0.23000
C2637       C  0.85765567  0.88791404  0.57054264    -0.39000
C2638       C  0.85667074  0.87582220  0.55019861     0.21800
N2639       N  0.86504321  0.85496057  0.52553761    -0.32300
C2640       C  0.85058383  0.85894373  0.51615492    -0.09800
C2641       C  0.84491338  0.87189298  0.53104965    -0.28600
N2642       N  0.87521770  0.89844763  0.60812758    -0.45200
C2643       C  0.88944317  0.89387161  0.61800770    -0.04500
C2644       C  0.89491791  0.88099124  0.60279576    -0.21900
H2645       H  0.89175430  0.85726680  0.55977590     0.19900
H2646       H  0.84828115  0.89620930  0.57365117     0.18700
H2647       H  0.83384077  0.87776651  0.52794128     0.15000
H2648       H  0.90568654  0.87463444  0.60634835     0.14900
H2649       H  0.87202261  0.84582294  0.51809609     0.33000
H2650       H  0.86828331  0.90749933  0.61608548     0.35800
C2651       C  0.01407329  0.07573667  0.82914502     0.21400
C2652       C  0.00067643  0.06874680  0.84019040    -0.38500
C2653       C  0.98649744  0.07484946  0.82996012     0.20400
C2654       C  0.98574500  0.08695991  0.81019713     0.23000
C2655       C  0.99913651  0.09394777  0.79915217    -0.39000
C2656       C  0.01330649  0.08783786  0.80936384     0.21800
N2657       N  0.02893161  0.07183517  0.83492518    -0.32300
C2658       C  0.03764714  0.08147238  0.81858005    -0.09800
C2659       C  0.02834407  0.09162930  0.80236187    -0.28600
N2660       N  0.97091341  0.09028440  0.80315000    -0.45200
C2661       C  0.96217438  0.08023320  0.81855030    -0.04500
C2662       C  0.97145006  0.07045018  0.83561372    -0.21900
H2663       H  0.00125432  0.05914870  0.85534287     0.19900
H2664       H  0.99856505  0.10329648  0.78345907     0.18700
H2665       H  0.03208413  0.10044691  0.78724453     0.15000
H2666       H  0.96770682  0.06111968  0.84960127     0.14900
H2667       H  0.03289368  0.06300302  0.84871831     0.33000
H2668       H  0.96698667  0.09868973  0.78840583     0.35800
C2669       C  0.90847707  0.00434017  0.77685813     0.21400
C2670       C  0.90828218  0.98844239  0.78347425    -0.38500
C2671       C  0.90851973  0.97839085  0.75951235     0.20400
C2672       C  0.90879371  0.98375510  0.73115737     0.23000
C2673       C  0.90904509  0.99961356  0.72456704    -0.39000
C2674       C  0.90894569  0.00963626  0.74847734     0.21800
N2675       N  0.90868199  0.01629667  0.79562023    -0.32300
C2676       C  0.90942217  0.02923126  0.77892433    -0.09800
C2677       C  0.90959829  0.02552946  0.74948833    -0.28600
N2678       N  0.90917694  0.97188864  0.71229991    -0.45200
C2679       C  0.90923857  0.95887081  0.72876948    -0.04500
C2680       C  0.90884578  0.96243712  0.75830612    -0.21900
H2681       H  0.90814383  0.98420887  0.80560568     0.19900
H2682       H  0.90948232  0.00384074  0.70244825     0.18700
H2683       H  0.91026049  0.03343292  0.73126353     0.15000
H2684       H  0.90894571  0.95442695  0.77642648     0.14900
H2685       H  0.90858291  0.01569378  0.81826746     0.33000
H2686       H  0.90959974  0.97259761  0.68966441     0.35800
C2687       C  0.62626847  0.13354516  0.58840306     0.21400
C2688       C  0.61526869  0.13538205  0.56605653    -0.38500
C2689       C  0.61448747  0.12314545  0.54616288     0.20400
C2690       C  0.62396167  0.11010205  0.54834725     0.23000
C2691       C  0.63491318  0.10823333  0.57074667    -0.39000
C2692       C  0.63567336  0.12045508  0.59065415     0.21800
N2693       N  0.62985799  0.14385706  0.60911760    -0.32300
C2694       C  0.64168496  0.13728871  0.62447624    -0.09800
C2695       C  0.64553708  0.12264271  0.61383501    -0.28600
N2696       N  0.62098001  0.10017079  0.52670470    -0.45200
C2697       C  0.60948682  0.10691327  0.51074680    -0.04500
C2698       C  0.60511800  0.12125294  0.52214098    -0.21900
H2699       H  0.60799091  0.14565008  0.56411092     0.19900
H2700       H  0.64241746  0.09810723  0.57234122     0.18700
H2701       H  0.65480471  0.11497798  0.62118699     0.15000
H2702       H  0.59631738  0.12919492  0.01403614     0.14900
H2703       H  0.62500467  0.15489888  0.61190523     0.33000
H2704       H  0.62626088  0.08934914  0.52326438     0.35800
C2705       C  0.61751562  0.11943147  0.83278267     0.21400
C2706       C  0.61776844  0.13254508  0.81480623    -0.38500
C2707       C  0.63107854  0.13417745  0.79774379     0.20400
C2708       C  0.64326604  0.12356363  0.79845736     0.23000
C2709       C  0.64300655  0.11037847  0.81649062    -0.39000
C2710       C  0.62962861  0.10873305  0.83365149     0.21800
N2711       N  0.60632819  0.11557759  0.85156694    -0.32300
C2712       C  0.61127739  0.10236265  0.86475237    -0.09800
C2713       C  0.62575285  0.09762860  0.85403252    -0.28600
N2714       N  0.65431511  0.12754664  0.77930700    -0.45200
C2715       C  0.64900864  0.14070152  0.76625728    -0.04500
C2716       C  0.63461002  0.14523047  0.77733256    -0.21900
H2717       H  0.60825610  0.14086193  0.81410868     0.19900
H2718       H  0.65248862  0.10202731  0.81707638     0.18700
H2719       H  0.63271725  0.08775444  0.86093562     0.15000
H2720       H  0.62740589  0.15495384  0.77050869     0.14900
H2721       H  0.59610732  0.12182505  0.85576534     0.33000
H2722       H  0.66452672  0.12138378  0.77459150     0.35800
C2723       C  0.87329146  0.12750707  0.65813036     0.21400
C2724       C  0.88541989  0.12840727  0.67856398    -0.38500
C2725       C  0.88607315  0.11637793  0.69906631     0.20400
C2726       C  0.87544513  0.10440770  0.69914463     0.23000
C2727       C  0.86342081  0.10343591  0.67860441    -0.39000
C2728       C  0.86277346  0.11544033  0.65812936     0.21800
N2729       N  0.86965202  0.13787396  0.63732612    -0.32300
C2730       C  0.85673740  0.13234510  0.62407283    -0.09800
C2731       C  0.85215895  0.11832488  0.63628181    -0.28600
N2732       N  0.87828550  0.09464091  0.72125554    -0.45200
C2733       C  0.89082890  0.10039576  0.73532105    -0.04500
C2734       C  0.89608464  0.11391866  0.72212755    -0.21900
H2735       H  0.89356742  0.13789925  0.67878429     0.19900
H2736       H  0.85502665  0.09416063  0.67886544     0.18700
H2737       H  0.84208638  0.11148945  0.63066257     0.15000
H2738       H  0.90582046  0.12100902  0.72863452     0.14900
H2739       H  0.87534456  0.14825555  0.63291310     0.33000
H2740       H  0.87209006  0.08466370  0.72644179     0.35800
C2741       C  0.85718198  0.11720468  0.95261330     0.21400
C2742       C  0.85859505  0.10336867  0.93670722    -0.38500
C2743       C  0.87080429  0.10284273  0.91655538     0.20400
C2744       C  0.88087571  0.11511565  0.91282309     0.23000
C2745       C  0.87958047  0.12883328  0.92891052    -0.39000
C2746       C  0.86734448  0.12939584  0.94882750     0.21800
N2747       N  0.84657717  0.12069336  0.97302736    -0.32300
C2748       C  0.85013172  0.13514683  0.98234692    -0.09800
C2749       C  0.86299198  0.14094242  0.96773551    -0.28600
N2750       N  0.89115468  0.11202304  0.89175536    -0.45200
C2751       C  0.88761151  0.09770550  0.88182057    -0.04500
C2752       C  0.87502554  0.09153533  0.89682715    -0.21900
H2753       H  0.85067007  0.09381319  0.93955047     0.19900
H2754       H  0.88743304  0.13843616  0.92591687     0.18700
H2755       H  0.86838812  0.15214114  0.47096300     0.15000
H2756       H  0.86951545  0.08045793  0.89332949     0.14900
H2757       H  0.83775380  0.11352290  0.98074627     0.33000
H2758       H  0.89985457  0.11934766  0.88417665     0.35800
C2759       C  0.75864854  0.15297865  0.59843026     0.21400
C2760       C  0.74254232  0.15412548  0.59374957    -0.38500
C2761       C  0.73331122  0.15334118  0.61872855     0.20400
C2762       C  0.73958943  0.15146189  0.64628645     0.23000
C2763       C  0.75569586  0.15030413  0.65096303    -0.39000
C2764       C  0.76492970  0.15119277  0.62600588     0.21800
N2765       N  0.76996000  0.15407092  0.57846809    -0.32300
C2766       C  0.78350605  0.15308590  0.59357134    -0.09800
C2767       C  0.78084009  0.15124942  0.62320406    -0.28600
N2768       N  0.72835520  0.15183483  0.66651568    -0.45200
C2769       C  0.71487294  0.15412204  0.65166302    -0.04500
C2770       C  0.71748738  0.15500823  0.62185464    -0.21900
H2771       H  0.73757802  0.15587839  0.57233357     0.19900
H2772       H  0.76069219  0.14918001  0.67249458     0.18700
H2773       H  0.78941832  0.15038943  0.64044100     0.15000
H2774       H  0.70898301  0.15709952  0.60483931     0.14900
H2775       H  0.76856410  0.15578542  0.55614285     0.33000
H2776       H  0.72981559  0.15111735  0.68901093     0.35800
C2777       C  0.67043242  0.73482029  0.78314540     0.21400
C2778       C  0.67739845  0.74815309  0.77167982    -0.38500
C2779       C  0.67137417  0.76235501  0.78170080     0.20400
C2780       C  0.65935776  0.76314749  0.80158165     0.23000
C2781       C  0.65242354  0.74986258  0.81300003    -0.39000
C2782       C  0.65842933  0.73572245  0.80303056     0.21800
N2783       N  0.67444814  0.71994278  0.77824540    -0.32300
C2784       C  0.66497415  0.71142133  0.79533318    -0.09800
C2785       C  0.65478849  0.72084162  0.81094781    -0.28600
N2786       N  0.65610837  0.77791180  0.80854811    -0.45200
C2787       C  0.66612800  0.78663692  0.79309152    -0.04500
C2788       C  0.67581795  0.77738070  0.77596338    -0.21900
H2789       H  0.68697409  0.74751638  0.75654436     0.19900
H2790       H  0.64322878  0.75049036  0.82893839     0.18700
H2791       H  0.64622017  0.71728841  0.82669903     0.15000
H2792       H  0.68510625  0.78111604  0.76188157     0.14900
H2793       H  0.68336815  0.71587076  0.76487508     0.33000
H2794       H  0.64780063  0.78180063  0.82340460     0.35800
C2795       C  0.83888493  0.76178110  0.94297615     0.21400
C2796       C  0.84565271  0.74871762  0.92997562    -0.38500
C2797       C  0.84048046  0.73439490  0.94018129     0.20400
C2798       C  0.82946857  0.73314164  0.96187086     0.23000
C2799       C  0.82265608  0.74626306  0.97491897    -0.39000
C2800       C  0.82778481  0.76065224  0.96454587     0.21800
N2801       N  0.84135891  0.77663101  0.93599944    -0.32300
C2802       C  0.83172852  0.78509502  0.95303851    -0.09800
C2803       C  0.82309079  0.77557950  0.97131972    -0.28600
N2804       N  0.82608701  0.71817191  0.96673354    -0.45200
C2805       C  0.83490118  0.70993081  0.94776237    -0.04500
C2806       C  0.84407920  0.71963870  0.93096462    -0.21900
H2807       H  0.85406577  0.74964961  0.91266906     0.19900
H2808       H  0.81378673  0.74533637  0.99141064     0.18700
H2809       H  0.81430393  0.77907572  0.98680126     0.15000
H2810       H  0.85196948  0.71636284  0.91374107     0.14900
H2811       H  0.84887999  0.78074818  0.92005705     0.33000
H2812       H  0.81793006  0.71386301  0.98132049     0.35800
C2813       C  0.76537185  0.65207378  0.87302962     0.21400
C2814       C  0.75654501  0.64946988  0.84772130    -0.38500
C2815       C  0.74052681  0.65267638  0.84983612     0.20400
C2816       C  0.73388565  0.65806695  0.87524908     0.23000
C2817       C  0.74267765  0.66051290  0.90059528    -0.39000
C2818       C  0.75866152  0.65729405  0.89850244     0.21800
N2819       N  0.78089306  0.65079887  0.87616551    -0.32300
C2820       C  0.78409286  0.65521986  0.90381140    -0.09800
C2821       C  0.77050188  0.65922708  0.91852455    -0.28600
N2822       N  0.71860246  0.66082757  0.87144061    -0.45200
C2823       C  0.71539420  0.65716124  0.84343705    -0.04500
C2824       C  0.72877796  0.65194826  0.82923347    -0.21900
H2825       H  0.76181483  0.64556330  0.82769932     0.19900
H2826       H  0.73749602  0.66492179  0.92033168     0.18700
H2827       H  0.76949663  0.66359832  0.94045310     0.15000
H2828       H  0.72981564  0.64837051  0.80681075     0.14900
H2829       H  0.78887519  0.64750922  0.86023681     0.33000
H2830       H  0.71082825  0.66508132  0.88692902     0.35800
C2831       C  0.48909758  0.41091361  0.92076382     0.21400
C2832       C  0.50231500  0.41697999  0.90718113    -0.38500
C2833       C  0.51671959  0.41207920  0.91863746     0.20400
C2834       C  0.51785905  0.40190244  0.94184983     0.23000
C2835       C  0.50464955  0.39575260  0.95529979    -0.39000
C2836       C  0.49025214  0.40066320  0.94385849     0.21800
N2837       N  0.47411504  0.41453550  0.91518725    -0.32300
C2838       C  0.46567321  0.40656567  0.93491318    -0.09800
C2839       C  0.47532619  0.39770527  0.95304697    -0.28600
N2840       N  0.53279464  0.39990980  0.94996718    -0.45200
C2841       C  0.54123233  0.40894001  0.93191950    -0.04500
C2842       C  0.53163137  0.41659319  0.91188092    -0.21900
H2843       H  0.50144290  0.42527881  0.88957933     0.19900
H2844       H  0.50551188  0.38808750  0.97388464     0.18700
H2845       H  0.47191396  0.39056792  0.97124215     0.15000
H2846       H  0.53504017  0.42486202  0.89545407     0.14900
H2847       H  0.46992389  0.42234341  0.89958219     0.33000
H2848       H  0.53694387  0.39325524  0.96738495     0.35800
C2849       C  0.51463165  0.57680915  0.57452983     0.21400
C2850       C  0.50160473  0.57117140  0.58917770    -0.38500
C2851       C  0.48715232  0.57513141  0.57692303     0.20400
C2852       C  0.48575833  0.58402299  0.55196306     0.23000
C2853       C  0.49881224  0.58961004  0.53720184    -0.39000
C2854       C  0.51328561  0.58566455  0.54951061     0.21800
N2855       N  0.52963742  0.57456173  0.58172241    -0.32300
C2856       C  0.53789748  0.58202251  0.56111267    -0.09800
C2857       C  0.52813952  0.58910142  0.54064834    -0.28600
N2858       N  0.47070211  0.58619269  0.54486638    -0.45200
C2859       C  0.46250715  0.57859823  0.56546470    -0.04500
C2860       C  0.47235482  0.57153915  0.58576634    -0.21900
H2861       H  0.50264524  0.56421026  0.60867983     0.19900
H2862       H  0.49778045  0.59651080  0.51762150     0.18700
H2863       H  0.53147805  0.59569124  0.52169402     0.15000
H2864       H  0.46910961  0.56472503  0.60449541     0.14900
H2865       H  0.53399164  0.56820456  0.59934482     0.33000
H2866       H  0.46627973  0.59239936  0.52710291     0.35800
C2867       C  0.62496014  0.61181512  0.95226738     0.21400
C2868       C  0.63751881  0.61161348  0.93311663    -0.38500
C2869       C  0.63730316  0.62316359  0.91181784     0.20400
C2870       C  0.62554889  0.63421619  0.90971172     0.23000
C2871       C  0.61283150  0.63433326  0.92880449    -0.39000
C2872       C  0.61299670  0.62264837  0.95013577     0.21800
N2873       N  0.62257970  0.60202648  0.97437426    -0.32300
C2874       C  0.60893597  0.60651520  0.98637711    -0.09800
C2875       C  0.60254592  0.61933222  0.97189231    -0.28600
N2876       N  0.62846937  0.64421682  0.88797348    -0.45200
C2877       C  0.64212249  0.63932454  0.87629548    -0.04500
C2878       C  0.64789897  0.62622319  0.89049246    -0.21900
H2879       H  0.64683639  0.60311413  0.93477219     0.19900
H2880       H  0.60356693  0.64289449  0.92726465     0.18700
H2881       H  0.59173227  0.62533679  0.97658203     0.15000
H2882       H  0.65863751  0.61999424  0.88620233     0.14900
H2883       H  0.62969632  0.59239170  0.48047220     0.33000
H2884       H  0.62171875  0.65381150  0.88167749     0.35800
C2885       C  0.62725159  0.60676318  0.66530167     0.21400
C2886       C  0.64073553  0.60728950  0.68266276    -0.38500
C2887       C  0.64187036  0.62013924  0.70123131     0.20400
C2888       C  0.63037448  0.63147682  0.70251173     0.23000
C2889       C  0.61689499  0.63091486  0.68530133    -0.39000
C2890       C  0.61583706  0.61818123  0.66659509     0.21800
N2891       N  0.62375346  0.59624822  0.64479566    -0.32300
C2892       C  0.61011198  0.60114995  0.63282486    -0.09800
C2893       C  0.60476920  0.61471685  0.64598649    -0.28600
N2894       N  0.63411760  0.64242980  0.72190335    -0.45200
C2895       C  0.64809057  0.63808328  0.73316321    -0.04500
C2896       C  0.65335542  0.62424470  0.72076857    -0.21900
H2897       H  0.64976415  0.59847717  0.68149947     0.19900
H2898       H  0.60799478  0.63987258  0.68609179     0.18700
H2899       H  0.59445958  0.62143647  0.64048920     0.15000
H2900       H  0.66395039  0.61789067  0.72584107     0.14900
H2901       H  0.63048077  0.58668036  0.63861621     0.33000
H2902       H  0.62742088  0.65214060  0.72754206     0.35800
C2903       C  0.59072157  0.48229155  0.00417418     0.21400
C2904       C  0.58820075  0.49144830  0.02894609    -0.38500
C2905       C  0.59136059  0.50723105  0.52575096     0.20400
C2906       C  0.59608285  0.51344947  0.49953821     0.23000
C2907       C  0.59903108  0.50433634  0.97512576    -0.39000
C2908       C  0.59595568  0.48850414  0.97831715     0.21800
N2909       N  0.58845738  0.46698099  0.00145122    -0.32300
C2910       C  0.59228714  0.46341565  0.97370327    -0.09800
C2911       C  0.59702819  0.47653954  0.95855773    -0.28600
N2912       N  0.59727956  0.52890888  0.50141478    -0.45200
C2913       C  0.59330976  0.53261819  0.52898251    -0.04500
C2914       C  0.58963418  0.51940091  0.54496698    -0.21900
H2915       H  0.58395510  0.48661537  0.04907499     0.19900
H2916       H  0.60293692  0.50922431  0.95480267     0.18700
H2917       H  0.60076649  0.47722506  0.93619557     0.15000
H2918       H  0.58566862  0.51884508  0.56720584     0.14900
H2919       H  0.58456793  0.45940197  0.01751100     0.33000
H2920       H  0.60025363  0.53652833  0.48472697     0.35800
C2921       C  0.98687242  0.41422509  0.82575601     0.21400
C2922       C  0.99993115  0.42091969  0.83897057    -0.38500
C2923       C  0.01436894  0.41675020  0.82709210     0.20400
C2924       C  0.01568617  0.40668223  0.80382953     0.23000
C2925       C  0.00262685  0.40003507  0.79053931    -0.39000
C2926       C  0.98819049  0.40419695  0.80243078     0.21800
N2927       N  0.97184485  0.41688419  0.83212951    -0.32300
C2928       C  0.96353980  0.40860962  0.81255760    -0.09800
C2929       C  0.97331960  0.40043375  0.79382534    -0.28600
N2930       N  0.03067666  0.40463930  0.79651557    -0.45200
C2931       C  0.03895965  0.41345742  0.81526461    -0.04500
C2932       C  0.02920371  0.42123453  0.83460440    -0.21900
H2933       H  0.99891178  0.42891928  0.85695822     0.19900
H2934       H  0.00362275  0.39233514  0.77209395     0.18700
H2935       H  0.96999003  0.39325849  0.77560530     0.15000
H2936       H  0.03252456  0.42908544  0.85181643     0.14900
H2937       H  0.96750198  0.42434419  0.84805215     0.33000
H2938       H  0.03500700  0.39771110  0.77976079     0.35800
C2939       C  0.98679989  0.57746184  0.66944029     0.21400
C2940       C  0.00046279  0.57050134  0.65875939    -0.38500
C2941       C  0.01446025  0.57711323  0.66822753     0.20400
C2942       C  0.01475480  0.58970765  0.68682769     0.23000
C2943       C  0.00111874  0.59664127  0.69749695    -0.39000
C2944       C  0.98715547  0.59002710  0.68809287     0.21800
N2945       N  0.97207034  0.57298530  0.66469235    -0.32300
C2946       C  0.96302236  0.58273981  0.68052038    -0.09800
C2947       C  0.97200062  0.59356910  0.69532468    -0.28600
N2948       N  0.02943941  0.59334710  0.69382138    -0.45200
C2949       C  0.03860600  0.58294324  0.67984250    -0.04500
C2950       C  0.02971302  0.57267348  0.66342618    -0.21900
H2951       H  0.00021514  0.56047811  0.64465865     0.19900
H2952       H  0.00137905  0.60627203  0.71252687     0.18700
H2953       H  0.96800580  0.60254715  0.70997631     0.15000
H2954       H  0.03381264  0.56292897  0.65070430     0.14900
H2955       H  0.96841857  0.56367910  0.65198612     0.33000
H2956       H  0.03299349  0.60204220  0.70809858     0.35800
C2957       C  0.87245523  0.61164085  0.78616496     0.21400
C2958       C  0.85894755  0.61262552  0.80299447    -0.38500
C2959       C  0.85938024  0.62335816  0.82575941     0.20400
C2960       C  0.87219827  0.63255691  0.83113597     0.23000
C2961       C  0.88574796  0.63150005  0.81439129    -0.39000
C2962       C  0.88538184  0.62064319  0.79178513     0.21800
N2963       N  0.87512454  0.60204255  0.76380914    -0.32300
C2964       C  0.88989172  0.60487379  0.75529048    -0.09800
C2965       C  0.89668385  0.61640134  0.77216901    -0.28600
N2966       N  0.86965801  0.64183536  0.85405855    -0.45200
C2967       C  0.85520048  0.63834702  0.86344669    -0.04500
C2968       C  0.84842672  0.62687888  0.84642245    -0.21900
H2969       H  0.84891866  0.60543929  0.79888342     0.19900
H2970       H  0.89587540  0.63849107  0.81882296     0.18700
H2971       H  0.90837109  0.62087855  0.77058723     0.15000
H2972       H  0.83700610  0.62185947  0.84880459     0.14900
H2973       H  0.86749672  0.59385525  0.75526567     0.33000
H2974       H  0.87732629  0.64987426  0.86298148     0.35800
C2975       C  0.88552744  0.61049199  0.57254008     0.21400
C2976       C  0.88678031  0.62162204  0.55047952    -0.38500
C2977       C  0.87310333  0.62478492  0.53477051     0.20400
C2978       C  0.85920133  0.61743023  0.54051605     0.23000
C2979       C  0.85797981  0.60617931  0.56248859    -0.39000
C2980       C  0.87169625  0.60299808  0.57825088     0.21800
N2981       N  0.89663816  0.60611944  0.59153751    -0.32300
C2982       C  0.88989006  0.59574703  0.60952309    -0.09800
C2983       C  0.87435568  0.59339116  0.60182184    -0.28600
N2984       N  0.84780520  0.62287929  0.52299484    -0.45200
C2985       C  0.85454268  0.63376473  0.50604873    -0.04500
C2986       C  0.87031229  0.63522618  0.51269916    -0.21900
H2987       H  0.89754662  0.62760932  0.54623864     0.19900
H2988       H  0.84709590  0.60054069  0.56731585     0.18700
H2989       H  0.86597890  0.58618026  0.61278279     0.15000
H2990       H  0.87831639  0.64328166  0.00301036     0.14900
H2991       H  0.90799355  0.61028582  0.59273710     0.33000
H2992       H  0.83616500  0.61945237  0.52263969     0.35800
C2993       C  0.91136716  0.50641400  0.72470526     0.21400
C2994       C  0.91349764  0.49065819  0.71855826    -0.38500
C2995       C  0.91216769  0.48058923  0.74224058     0.20400
C2996       C  0.90888424  0.48572181  0.77003358     0.23000
C2997       C  0.90681398  0.50155447  0.77625873    -0.39000
C2998       C  0.90823677  0.51168054  0.75248593     0.21800
N2999       N  0.91234526  0.51828569  0.70593671    -0.32300
C3000       C  0.90995363  0.53124670  0.72187488    -0.09800
C3001       C  0.90733078  0.52762933  0.75099801    -0.28600
N3002       N  0.90832029  0.47368828  0.78867254    -0.45200
C3003       C  0.91135871  0.46090822  0.77244635    -0.04500
C3004       C  0.91380348  0.46477118  0.74348319    -0.21900
H3005       H  0.91612090  0.48653948  0.69692869     0.19900
H3006       H  0.90440983  0.50568773  0.79796908     0.18700
H3007       H  0.90524424  0.53560765  0.76870411     0.15000
H3008       H  0.91645772  0.45701198  0.72569663     0.14900
H3009       H  0.91479803  0.51763166  0.68378472     0.33000
H3010       H  0.90612034  0.47413751  0.81093802     0.35800
C3011       C  0.67399028  0.23478989  0.70734438     0.21400
C3012       C  0.68012881  0.24781365  0.72141558    -0.38500
C3013       C  0.67557699  0.26222254  0.70986081     0.20400
C3014       C  0.66571505  0.26349543  0.68607795     0.23000
C3015       C  0.65959709  0.25049921  0.67201839    -0.39000
C3016       C  0.66409027  0.23611962  0.68363091     0.21800
N3017       N  0.67667097  0.21981067  0.71384527    -0.32300
C3018       C  0.66839934  0.21159045  0.69414256    -0.09800
C3019       C  0.66037109  0.22134327  0.67497436    -0.28600
N3020       N  0.66327076  0.27840879  0.67906148    -0.45200
C3021       C  0.67161707  0.28671411  0.69847285    -0.04500
C3022       C  0.67947074  0.27706109  0.71809281    -0.21900
H3023       H  0.68790876  0.24679807  0.73989196     0.19900
H3024       H  0.65194371  0.25151615  0.65335553     0.18700
H3025       H  0.65299881  0.21805822  0.65692067     0.15000
H3026       H  0.68707367  0.28043413  0.73574772     0.14900
H3027       H  0.68378225  0.21544907  0.73045450     0.33000
H3028       H  0.65644305  0.28268056  0.66194120     0.35800
C3029       C  0.63596597  0.36583282  0.79874670     0.21400
C3030       C  0.62183985  0.36722322  0.81356992    -0.38500
C3031       C  0.62084924  0.37950439  0.83329430     0.20400
C3032       C  0.63301958  0.38961778  0.83802463     0.23000
C3033       C  0.64719540  0.38820827  0.82315640    -0.39000
C3034       C  0.64818102  0.37591184  0.80329697     0.21800
N3035       N  0.63953516  0.35545211  0.77816848    -0.32300
C3036       C  0.65409335  0.35894613  0.76934345    -0.09800
C3037       C  0.65996367  0.37158419  0.78462341    -0.28600
N3038       N  0.62923270  0.40005169  0.85850194    -0.45200
C3039       C  0.61458975  0.39649725  0.86682360    -0.04500
C3040       C  0.60894612  0.38380288  0.85148628    -0.21900
H3041       H  0.61229954  0.35934397  0.80993207     0.19900
H3042       H  0.65671459  0.39612093  0.82672108     0.18700
H3043       H  0.67105712  0.37719243  0.78167517     0.15000
H3044       H  0.59784891  0.37814381  0.85407108     0.14900
H3045       H  0.63230944  0.34682186  0.76996954     0.33000
H3046       H  0.63633820  0.40878103  0.86691526     0.35800
C3047       C  0.63204008  0.36452717  0.59038711     0.21400
C3048       C  0.61977402  0.36366263  0.57023348    -0.38500
C3049       C  0.61979292  0.37491401  0.54819859     0.20400
C3050       C  0.63119291  0.38611029  0.54634813     0.23000
C3051       C  0.64338473  0.38703152  0.56657777    -0.39000
C3052       C  0.64331946  0.37584718  0.58865466     0.21800
N3053       N  0.63493242  0.35495222  0.61287037    -0.32300
C3054       C  0.64810899  0.36029232  0.62550101    -0.09800
C3055       C  0.65362982  0.37334045  0.61113335    -0.28600
N3056       N  0.62847015  0.39559480  0.52372466    -0.45200
C3057       C  0.61516879  0.39050107  0.51122732    -0.04500
C3058       C  0.60943104  0.37758298  0.52577009    -0.21900
H3059       H  0.61088945  0.35488497  0.57159247     0.19900
H3060       H  0.65227308  0.39580765  0.56521843     0.18700
H3061       H  0.66407882  0.37978638  0.61590778     0.15000
H3062       H  0.59889149  0.37127928  0.52103556     0.14900
H3063       H  0.62854278  0.34522683  0.61888351     0.33000
H3064       H  0.63501929  0.40522262  0.51765245     0.35800
C3065       C  0.84076474  0.25928167  0.55607514     0.21400
C3066       C  0.84712020  0.24577594  0.56863585    -0.38500
C3067       C  0.84048922  0.23177946  0.55956291     0.20400
C3068       C  0.82851576  0.23126580  0.53936588     0.23000
C3069       C  0.82216664  0.24477267  0.52678591    -0.39000
C3070       C  0.82873090  0.25878078  0.53600025     0.21800
N3071       N  0.84455277  0.27402875  0.56203078    -0.32300
C3072       C  0.83479787  0.28299137  0.54578913    -0.09800
C3073       C  0.82480034  0.27390139  0.52916671    -0.28600
N3074       N  0.82406895  0.21656183  0.53479329    -0.45200
C3075       C  0.83324039  0.20766118  0.55228081    -0.04500
C3076       C  0.84362420  0.21673188  0.56807514    -0.21900
H3077       H  0.85636598  0.24615457  0.58466203     0.19900
H3078       H  0.81232461  0.24454898  0.01116907     0.18700
H3079       H  0.81529165  0.27797743  0.01459217     0.15000
H3080       H  0.85222944  0.21284063  0.58378355     0.14900
H3081       H  0.85296312  0.27777334  0.57683133     0.33000
H3082       H  0.81524121  0.21282309  0.52086869     0.35800
C3083       C  0.88246238  0.37623786  0.90703687     0.21400
C3084       C  0.88178910  0.36278749  0.92402620    -0.38500
C3085       C  0.86909652  0.36186107  0.94281698     0.20400
C3086       C  0.85793186  0.37348862  0.94478684     0.23000
C3087       C  0.85863848  0.38703555  0.92778876    -0.39000
C3088       C  0.87134073  0.38792507  0.90875183     0.21800
N3089       N  0.89311595  0.37954778  0.88686956    -0.32300
C3090       C  0.88878910  0.39340795  0.87541597    -0.09800
C3091       C  0.87528686  0.39909473  0.88858359    -0.28600
N3092       N  0.84718623  0.36981495  0.96475555    -0.45200
C3093       C  0.85160077  0.35575791  0.97542529    -0.04500
C3094       C  0.86518896  0.35044533  0.96222739    -0.21900
H3095       H  0.89047368  0.35364864  0.92256519     0.19900
H3096       H  0.84990943  0.39613561  0.92913861     0.18700
H3097       H  0.86900965  0.40971271  0.88354844     0.15000
H3098       H  0.87158920  0.33984016  0.96681964     0.14900
H3099       H  0.90258300  0.37261165  0.88079289     0.33000
H3100       H  0.83766070  0.37658480  0.97119213     0.35800
C3101       C  0.87508617  0.36232566  0.65208794     0.21400
C3102       C  0.88665287  0.36115903  0.67357914    -0.38500
C3103       C  0.88700317  0.37333644  0.69367429     0.20400
C3104       C  0.87658270  0.38568254  0.69252435     0.23000
C3105       C  0.86506300  0.38688416  0.67098234    -0.39000
C3106       C  0.86476772  0.37475495  0.65082057     0.21800
N3107       N  0.87186235  0.35195293  0.63124554    -0.32300
C3108       C  0.85939616  0.35785052  0.61673051    -0.09800
C3109       C  0.85472369  0.37210290  0.62810669    -0.28600
N3110       N  0.87927328  0.39566847  0.71424103    -0.45200
C3111       C  0.89153727  0.38966559  0.72920594    -0.04500
C3112       C  0.89669627  0.37575654  0.71707230    -0.21900
H3113       H  0.89468334  0.35142642  0.67473333     0.19900
H3114       H  0.85684459  0.39647125  0.67014979     0.18700
H3115       H  0.84487763  0.37921224  0.62146031     0.15000
H3116       H  0.90628161  0.36846471  0.72431634     0.14900
H3117       H  0.87746179  0.34131746  0.62770614     0.33000
H3118       H  0.87325327  0.40600994  0.71844112     0.35800
C3119       C  0.76245114  0.34005922  0.59925757     0.21400
C3120       C  0.74632551  0.34201524  0.59593913    -0.38500
C3121       C  0.73770171  0.34182629  0.62170199     0.20400
C3122       C  0.74455988  0.33987839  0.64876468     0.23000
C3123       C  0.76067903  0.33782640  0.65206840    -0.39000
C3124       C  0.76930445  0.33799127  0.62629147     0.21800
N3125       N  0.77322924  0.33972928  0.57817636    -0.32300
C3126       C  0.78702055  0.33740766  0.59197895    -0.09800
C3127       C  0.78503003  0.33622914  0.62193471    -0.28600
N3128       N  0.73371646  0.33957694  0.66972127    -0.45200
C3129       C  0.71988131  0.34115889  0.65574305    -0.04500
C3130       C  0.72190597  0.34269427  0.62586762    -0.21900
H3131       H  0.74087152  0.34341334  0.57484761     0.19900
H3132       H  0.76609369  0.33607981  0.67310761     0.18700
H3133       H  0.79392641  0.33434895  0.63832482     0.15000
H3134       H  0.71296220  0.34376566  0.60932609     0.14900
H3135       H  0.77132702  0.34094796  0.55586599     0.33000
H3136       H  0.73556153  0.33780866  0.69192291     0.35800
loop_ 
_geom_bond_atom_site_label_1 
_geom_bond_atom_site_label_2 
_geom_bond_distance 
_geom_bond_site_symmetry_2 
_ccdc_geom_bond_type 
O1            C4   1.266       .  A
O1           Cd6   2.465       .  S
C2           O11   1.263       .  A
C2            O7   1.266       .  A
C2         C1540   1.464       .  S
O3            C9   1.265   1_554  A
O3           Cd6   2.496       .  S
C4           O12   1.267       .  A
C4         C1504   1.472       .  S
C5           O10   1.269       .  A
C5            O8   1.263       .  A
C5         C1558   1.470       .  S
Cd6          O13   2.449       .  S
Cd6          O12   2.467       .  S
Cd6          O11   2.432       .  S
Cd6           O7   2.471       .  S
Cd6          O10   2.503       .  S
Cd6           O8   2.422       .  S
C9           O13   1.263   1_556  A
C9         C3093   1.471       .  S
O14          C17   1.266       .  A
O14         Cd19   2.465       .  S
C15          O24   1.265       .  A
C15          O20   1.263       .  A
C15        C1453   1.464       .  S
O16          C22   1.269       .  A
O16         Cd19   2.501       .  S
C17          O25   1.265       .  A
C17        C1486   1.466       .  S
C18          O23   1.267       .  A
C18          O21   1.262       .  A
C18        C1468   1.467       .  S
Cd19         O26   2.416       .  S
Cd19         O25   2.438       .  S
Cd19         O24   2.473       .  S
Cd19         O20   2.435       .  S
Cd19         O23   2.494       .  S
Cd19         O21   2.429       .  S
C22          O26   1.262       .  A
C22        C1561   1.468       .  S
O27          C30   1.264       .  A
O27         Cd32   2.445       .  S
C28          O37   1.265       .  A
C28          O33   1.266       .  A
C28        C1378   1.470       .  S
O29          C35   1.262       .  A
O29         Cd32   2.449       .  S
C30          O38   1.266       .  A
C30        C1396   1.465       .  S
C31          O36   1.264       .  A
C31          O34   1.262       .  A
C31        C1414   1.471       .  S
Cd32         O39   2.484       .  S
Cd32         O38   2.464       .  S
Cd32         O37   2.464       .  S
Cd32         O33   2.466       .  S
Cd32         O36   2.494       .  S
Cd32         O34   2.465       .  S
C35          O39   1.267       .  A
C35        C1432   1.468       .  S
O40          C43   1.265       .  A
O40         Cd45   2.463       .  S
C41          O50   1.265       .  A
C41          O46   1.265       .  A
C41        C1360   1.470       .  S
O42          C48   1.268       .  A
O42         Cd45   2.499       .  S
C43          O51   1.264       .  A
C43        C1543   1.466       .  S
C44          O49   1.265       .  A
C44          O47   1.262       .  A
C44        C1522   1.470       .  S
Cd45         O52   2.421       .  S
Cd45         O51   2.459       .  S
Cd45         O50   2.472       .  S
Cd45         O46   2.465       .  S
Cd45         O49   2.500       .  S
Cd45         O47   2.441       .  S
C48          O52   1.263       .  A
C48        C1435   1.468       .  S
O53          C56   1.266       .  A
O53         Cd58   2.466       .  S
C54          O63   1.264       .  A
C54          O59   1.264       .  A
C54        C1288   1.465       .  S
O55          C61   1.266       .  A
O55         Cd58   2.495       .  S
C56          O64   1.265       .  A
C56        C2874   1.465   1_554  S
C57          O62   1.265       .  A
C57          O60   1.263       .  A
C57        C1324   1.470       .  S
Cd58         O65   2.446       .  S
Cd58         O64   2.438       .  S
Cd58         O63   2.456       .  S
Cd58         O59   2.455       .  S
Cd58         O62   2.488       .  S
Cd58         O60   2.455       .  S
C61          O65   1.262       .  A
C61        C1345   1.469       .  S
O66          C69   1.266       .  A
O66         Cd71   2.464       .  S
C67          O76   1.263       .  A
C67          O72   1.265       .  A
C67        C3057   1.467       .  S
O68          C74   1.264       .  A
O68         Cd71   2.488       .  S
C69          O77   1.267       .  A
C69        C1273   1.473       .  S
C70          O75   1.262       .  A
C70          O73   1.268       .  A
C70        C1342   1.471       .  S
Cd71         O78   2.451       .  S
Cd71         O77   2.471       .  S
Cd71         O76   2.458       .  S
Cd71         O72   2.467       .  S
Cd71         O75   2.441       .  S
Cd71         O73   2.499       .  S
C74          O78   1.262       .  A
C74        C1471   1.468       .  S
O79          C82   1.268       .  A
O79         Cd84   2.466       .  S
C80          O89   1.264       .  A
C80          O85   1.265       .  A
C80        C1237   1.469       .  S
O81          C87   1.268       .  A
O81         Cd84   2.504       .  S
C82          O90   1.265       .  A
C82        C1399   1.464       .  S
C83          O88   1.266       .  A
C83          O86   1.261       .  A
C83        C2985   1.472       .  S
Cd84         O91   2.456       .  S
Cd84         O90   2.428       .  S
Cd84         O89   2.477       .  S
Cd84         O85   2.465       .  S
Cd84         O88   2.508       .  S
Cd84         O86   2.449       .  S
C87          O91   1.262       .  A
C87        C1252   1.475       .  S
O92          C95   1.265       .  A
O92         Cd97   2.495       .  S
C93         O102   1.266       .  A
C93          O98   1.265       .  A
C93        C1216   1.467       .  S
O94         C100   1.268       .  A
O94         Cd97   2.506       .  S
C95         O103   1.263       .  A
C95        C1309   1.467       .  S
C96         O101   1.265       .  A
C96          O99   1.262       .  A
C96        C1327   1.470       .  S
Cd97        O104   2.454       .  S
Cd97        O103   2.430       .  S
Cd97        O102   2.474       .  S
Cd97         O98   2.438       .  S
Cd97        O101   2.495       .  S
Cd97         O99   2.455       .  S
C100        O104   1.264       .  A
C100       C1255   1.476       .  S
O105        C108   1.266       .  A
O105       Cd110   2.464       .  S
C106        O115   1.264       .  A
C106        O111   1.266       .  A
C106       C1162   1.467       .  S
O107        C113   1.269       .  A
O107       Cd110   2.498       .  S
C108        O116   1.266       .  A
C108       C1507   1.472       .  S
C109        O114   1.266       .  A
C109        O112   1.262       .  A
C109       C2748   1.469   1_554  S
Cd110       O117   2.421       .  S
Cd110       O116   2.477       .  S
Cd110       O115   2.451       .  S
Cd110       O111   2.469       .  S
Cd110       O114   2.495       .  S
Cd110       O112   2.446       .  S
C113        O117   1.263       .  A
C113       C1198   1.468       .  S
O118        C121   1.265       .  A
O118       Cd123   2.456       .  S
C119        O128   1.264       .  A
C119        O124   1.266       .  A
C119       C1126   1.463       .  S
O120        C126   1.268       .  A
O120       Cd123   2.497       .  S
C121        O129   1.266       .  A
C121       C1450   1.467       .  S
C122        O127   1.266       .  A
C122        O125   1.263       .  A
C122       C1147   1.470       .  S
Cd123       O130   2.428       .  S
Cd123       O129   2.466       .  S
Cd123       O128   2.436       .  S
Cd123       O124   2.459       .  S
Cd123       O127   2.489       .  S
Cd123       O125   2.445       .  S
C126        O130   1.263       .  A
C126       C1201   1.469       .  S
O131        C134   1.264       .  A
O131       Cd136   2.452       .  S
C132        O141   1.265       .  A
C132        O137   1.264       .  A
C132       C1165   1.464       .  S
O133        C139   1.263       .  A
O133       Cd136   2.424       .  S
C134        O142   1.265       .  A
C134       C1093   1.466       .  S
C135        O140   1.265       .  A
C135        O138   1.262       .  A
C135       C1183   1.469       .  S
Cd136       O143   2.501       .  S
Cd136       O142   2.466       .  S
Cd136       O141   2.461       .  S
Cd136       O137   2.441       .  S
Cd136       O140   2.492       .  S
Cd136       O138   2.453       .  S
C139        O143   1.268       .  A
C139       C1108   1.470       .  S
O144        C147   1.267       .  A
O144       Cd149   2.474       .  S
C145        O154   1.265       .  A
C145        O150   1.266       .  A
C145       C1036   1.470       .  S
O146        C152   1.265       .  A
O146       Cd149   2.497       .  S
C147        O155   1.264       .  A
C147       C1054   1.465       .  S
C148        O153   1.268       .  A
C148        O151   1.263       .  A
C148       C1111   1.469       .  S
Cd149       O156   2.454       .  S
Cd149       O155   2.435       .  S
Cd149       O154   2.459       .  S
Cd149       O150   2.472       .  S
Cd149       O153   2.484       .  S
Cd149       O151   2.441       .  S
C152        O156   1.263       .  A
C152       C1075   1.472       .  S
O157        C160   1.264       .  A
O157       Cd162   2.462       .  S
C158        O167   1.263       .  A
C158        O163   1.265       .  A
C158       C2697   1.463       .  S
O159        C165   1.263       .  A
O159       Cd162   2.442       .  S
C160        O168   1.266       .  A
C160       C1003   1.471       .  S
C161        O166   1.265       .  A
C161        O164   1.262       .  A
C161       C1144   1.473       .  S
Cd162       O169   2.485       .  S
Cd162       O168   2.478       .  S
Cd162       O167   2.444       .  S
Cd162       O163   2.460       .  S
Cd162       O166   2.510       .  S
Cd162       O164   2.456       .  S
C165        O169   1.269       .  A
C165       C1018   1.470       .  S
O170        C173   1.264       .  A
O170       Cd175   2.446       .  S
C171        O180   1.265       .  A
C171        O176   1.266       .  A
C171       C2532   1.467   1_554  S
O172        C178   1.268       .  A
O172       Cd175   2.503       .  S
C173        O181   1.265       .  A
C173        C946   1.467       .  S
C174        O179   1.266       .  A
C174        O177   1.262       .  A
C174        C982   1.472       .  S
Cd175       O182   2.451       .  S
Cd175       O181   2.468       .  S
Cd175       O180   2.425       .  S
Cd175       O176   2.482       .  S
Cd175       O179   2.509       .  S
Cd175       O177   2.443       .  S
C178        O182   1.262       .  A
C178       C1021   1.473       .  S
O183        C186   1.262       .  A
O183       Cd188   2.435       .  S
C184        O193   1.266       .  A
C184        O189   1.267       .  A
C184       C1057   1.464       .  S
O185        C191   1.267       .  A
O185       Cd188   2.500       .  S
C186        O194   1.265       .  A
C186       C1234   1.466       .  S
C187        O192   1.265       .  A
C187        O190   1.261       .  A
C187       C2640   1.471       .  S
Cd188       O195   2.443       .  S
Cd188       O194   2.487       .  S
Cd188       O193   2.416       .  S
Cd188       O189   2.473       .  S
Cd188       O192   2.506       .  S
Cd188       O190   2.449       .  S
C191        O195   1.261       .  A
C191        C928   1.470       .  S
O196        C199   1.265       .  A
O196       Cd201   2.450       .  S
C197        O206   1.263       .  A
C197        O202   1.265       .  A
C197        C967   1.467       .  S
O198        C204   1.268       .  A
O198       Cd201   2.491       .  S
C199        O207   1.266       .  A
C199       C1219   1.468       .  S
C200        O205   1.265       .  A
C200        O203   1.263       .  A
C200        C985   1.471       .  S
Cd201       O208   2.440       .  S
Cd201       O207   2.470       .  S
Cd201       O206   2.445       .  S
Cd201       O202   2.481       .  S
Cd201       O205   2.497       .  S
Cd201       O203   2.449       .  S
C204        O208   1.263       .  A
C204        C931   1.470       .  S
O209        C212   1.264       .  A
O209       Cd214   2.468       .  S
C210        O219   1.265       .  A
C210        O215   1.265       .  A
C210        C892   1.465       .  S
O211        C217   1.261       .  A
O211       Cd214   2.449       .  S
C212        O220   1.265       .  A
C212       C1363   1.470       .  S
C213        O218   1.266       .  A
C213        O216   1.264       .  A
C213        C877   1.473       .  S
Cd214       O221   2.484       .  S
Cd214       O220   2.476       .  S
Cd214       O219   2.462       .  S
Cd214       O215   2.450       .  S
Cd214       O218   2.490       .  S
Cd214       O216   2.455       .  S
C217        O221   1.264       .  A
C217        C910   1.466       .  S
O222        C225   1.264       .  A
O222       Cd227   2.499       .  S
C223        O232   1.266       .  A
C223        O228   1.265       .  A
C223       C1381   1.469       .  S
O224        C230   1.265       .  A
O224       Cd227   2.511       .  S
C225        O233   1.263       .  A
C225        C841   1.470       .  S
C226        O231   1.268       .  A
C226        O229   1.264       .  A
C226        C913   1.467       .  S
Cd227       O234   2.440       .  S
Cd227       O233   2.453       .  S
Cd227       O232   2.477       .  S
Cd227       O228   2.450       .  S
Cd227       O231   2.476       .  S
Cd227       O229   2.440       .  S
C230        O234   1.262       .  A
C230        C859   1.471       .  S
O235        C238   1.264       .  A
O235       Cd240   2.452       .  S
C236        O245   1.264       .  A
C236        O241   1.265       .  A
C236        C895   1.463       .  S
O237        C243   1.264       .  A
O237       Cd240   2.484       .  S
C238        O246   1.265       .  A
C238        C802   1.465       .  S
C239        O244   1.267       .  A
C239        O242   1.263       .  A
C239       C2442   1.473   1_554  S
Cd240       O247   2.478       .  S
Cd240       O246   2.461       .  S
Cd240       O245   2.454       .  S
Cd240       O241   2.447       .  S
Cd240       O244   2.492       .  S
Cd240       O242   2.457       .  S
C243        O247   1.262       .  A
C243        C820   1.473       .  S
O248        C251   1.266       .  A
O248       Cd253   2.453       .  S
C249        O258   1.263       .  A
C249        O254   1.264       .  A
C249        C766   1.467       .  S
O250        C256   1.268       .  A
O250       Cd253   2.496       .  S
C251        O259   1.267       .  A
C251        C751   1.470       .  S
C252        O257   1.262       .  A
C252        O255   1.266       .  A
C252        C784   1.472       .  S
Cd253       O260   2.440       .  S
Cd253       O259   2.476       .  S
Cd253       O258   2.462       .  S
Cd253       O254   2.473       .  S
Cd253       O257   2.441       .  S
Cd253       O255   2.516       .  S
C256        O260   1.263       .  A
C256        C823   1.472       .  S
O261        C264   1.264       .  A
O261       Cd266   2.449       .  S
C262        O271   1.265       .  A
C262        O267   1.266       .  A
C262        C838   1.468       .  S
O263        C269   1.268       .  A
O263       Cd266   2.507       .  S
C264        O272   1.266       .  A
C264        C712   1.471       .  S
C265        O270   1.266       .  A
C265        O268   1.263       .  A
C265       C2424   1.472       .  S
Cd266       O273   2.441       .  S
Cd266       O272   2.490       .  S
Cd266       O271   2.439       .  S
Cd266       O267   2.475       .  S
Cd266       O270   2.499       .  S
Cd266       O268   2.454       .  S
C269        O273   1.262       .  A
C269        C730   1.472       .  S
O274        C277   1.265       .  A
O274       Cd279   2.443       .  S
C275        O284   1.263       .  A
C275        O280   1.265       .  A
C275        C694   1.464       .  S
O276        C282   1.269       .  A
O276       Cd279   2.490       .  S
C277        O285   1.267       .  A
C277        C658   1.469       .  S
C278        O283   1.266       .  A
C278        O281   1.262       .  A
C278        C679   1.473       .  S
Cd279       O286   2.438       .  S
Cd279       O285   2.478       .  S
Cd279       O284   2.453       .  S
Cd279       O280   2.458       .  S
Cd279       O283   2.499       .  S
Cd279       O281   2.453       .  S
C282        O286   1.263       .  A
C282        C733   1.470       .  S
O287        C290   1.266       .  A
O287       Cd292   2.468       .  S
C288        O297   1.266       .  A
C288        O293   1.265       .  A
C288       C1270   1.473       .  S
O289        C295   1.265       .  A
O289       Cd292   2.497       .  S
C290        O298   1.263       .  A
C290       C2337   1.463       .  S
C291        O296   1.264       .  A
C291        O294   1.268       .  A
C291        C640   1.466       .  S
Cd292       O299   2.442       .  S
Cd292       O298   2.436       .  S
Cd292       O297   2.480       .  S
Cd292       O293   2.468       .  S
Cd292       O296   2.422       .  S
Cd292       O294   2.481       .  S
C295        O299   1.263       .  A
C295        C787   1.470       .  S
O300        C303   1.264       .  A
O300       Cd305   2.475       .  S
C301        O310   1.265       .  A
C301        O306   1.266       .  A
C301       C2265   1.463       .  S
O302        C308   1.268       .  A
O302       Cd305   2.486       .  S
C303        O311   1.265       .  A
C303       C1291   1.470       .  S
C304        O309   1.266       .  A
C304        O307   1.263       .  A
C304        C676   1.475       .  S
Cd305       O312   2.443       .  S
Cd305       O311   2.465       .  S
Cd305       O310   2.437       .  S
Cd305       O306   2.454       .  S
Cd305       O309   2.514       .  S
Cd305       O307   2.455       .  S
C308        O312   1.262       .  A
C308        C643   1.468       .  S
O313        C316   1.265       .  A
O313       Cd318   2.486       .  S
C314        O323   1.265       .  A
C314        O319   1.265       .  A
C314        C715   1.473       .  S
O315        C321   1.266       .  A
O315       Cd318   2.507       .  S
C316        O324   1.265       .  A
C316        C589   1.469       .  S
C317        O322   1.265       .  A
C317        O320   1.263       .  A
C317       C2172   1.469       .  S
Cd318       O325   2.436       .  S
Cd318       O324   2.448       .  S
Cd318       O323   2.485       .  S
Cd318       O319   2.467       .  S
Cd318       O322   2.489       .  S
Cd318       O320   2.451       .  S
C321        O325   1.263       .  A
C321        C622   1.471       .  S
O326        C329   1.265       .  A
O326       Cd331   2.457       .  S
C327        O336   1.263       .  A
C327        O332   1.266       .  A
C327        C550   1.465       .  S
O328        C334   1.266       .  A
O328       Cd331   2.495       .  S
C329        O337   1.266       .  A
C329        C661   1.468       .  S
C330        O335   1.268       .  A
C330        O333   1.263       .  A
C330        C625   1.470       .  S
Cd331       O338   2.446       .  S
Cd331       O337   2.460       .  S
Cd331       O336   2.433       .  S
Cd331       O332   2.477       .  S
Cd331       O335   2.488       .  S
Cd331       O333   2.442       .  S
C334        O338   1.263       .  A
C334        C568   1.470       .  S
O339        C342   1.265       .  A
O339       Cd344   2.459       .  S
C340        O349   1.265       .  A
C340        O345   1.264       .  A
C340        C949   1.470       .  S
O341        C347   1.267       .  A
O341       Cd344   2.488       .  S
C342        O350   1.265       .  A
C342        C553   1.467       .  S
C343        O348   1.265       .  A
C343        O346   1.262       .  A
C343        C571   1.469       .  S
Cd344       O351   2.436       .  S
Cd344       O350   2.455       .  S
Cd344       O349   2.478       .  S
Cd344       O345   2.459       .  S
Cd344       O348   2.504       .  S
Cd344       O346   2.439       .  S
C347        O351   1.262       .  A
C347        C532   1.468       .  S
O352        C355   1.265       .  A
O352       Cd357   2.457       .  S
C353        O362   1.265       .  A
C353        O358   1.265       .  A
C353       C2064   1.463       .  S
O354        C360   1.262       .  A
O354       Cd357   2.445       .  S
C355        O363   1.267       .  A
C355       C1000   1.469       .  S
C356        O361   1.268       .  A
C356        O359   1.262       .  A
C356        C535   1.472       .  S
Cd357       O364   2.515       .  S
Cd357       O363   2.469       .  S
Cd357       O362   2.447       .  S
Cd357       O358   2.449       .  S
Cd357       O361   2.494       .  S
Cd357       O359   2.453       .  S
C360        O364   1.267       .  A
C360        C517   1.475       .  S
O365        C368   1.265       .  A
O365       Cd370   2.477       .  S
C366        O375   1.266       .  A
C366        O371   1.264       .  A
C366        C805   1.466       .  S
O367        C373   1.268       .  A
O367       Cd370   2.505       .  S
C368        O376   1.265       .  A
C368        C445   1.466       .  S
C369        O374   1.265       .  A
C369        O372   1.262       .  A
C369       C2031   1.474   1_554  S
Cd370       O377   2.447       .  S
Cd370       O376   2.434       .  S
Cd370       O375   2.468       .  S
Cd370       O371   2.446       .  S
Cd370       O374   2.509       .  S
Cd370       O372   2.453       .  S
C373        O377   1.263       .  A
C373        C481   1.473       .  S
O378        C381   1.266       .  A
O378       Cd383   2.470       .  S
C379        O388   1.265       .  A
C379        O384   1.265       .  A
C379        C748   1.468       .  S
O380        C386   1.269       .  A
O380       Cd383   2.497       .  S
C381        O389   1.264       .  A
C381        C499   1.465       .  S
C382        O387   1.266       .  A
C382        O385   1.262       .  A
C382        C514   1.476       .  S
Cd383       O390   2.439       .  S
Cd383       O389   2.444       .  S
Cd383       O388   2.465       .  S
Cd383       O384   2.457       .  S
Cd383       O387   2.509       .  S
Cd383       O385   2.464       .  S
C386        O390   1.263       .  A
C386        C478   1.472       .  S
O391        C394   1.265       .  A
O391       Cd396   2.476       .  S
C392        O401   1.267       .  A
C392        O397   1.264       .  A
C392       C1039   1.468       .  S
O393        C399   1.268       .  A
O393       Cd396   2.509       .  S
C394        O402   1.264       .  A
C394        C586   1.463       .  S
C395        O400   1.264       .  A
C395        O398   1.262       .  A
C395        C607   1.471       .  S
Cd396       O403   2.421       .  S
Cd396       O402   2.424       .  S
Cd396       O401   2.472       .  S
Cd396       O397   2.447       .  S
Cd396       O400   2.511       .  S
Cd396       O398   2.447       .  S
C399        O403   1.262       .  A
C399        C424   1.470       .  S
O404        C407   1.264       .  A
O404       Cd409   2.454       .  S
C405        O414   1.264       .  A
C405        O410   1.266       .  A
C405        C442   1.464       .  S
O406        C412   1.265       .  A
O406       Cd409   2.513       .  S
C407        O415   1.265       .  A
C407       C1090   1.465       .  S
C408        O413   1.268       .  A
C408        O411   1.263       .  A
C408        C427   1.468       .  S
Cd409       O416   2.433       .  S
Cd409       O415   2.461       .  S
Cd409       O414   2.420       .  S
Cd409       O410   2.474       .  S
Cd409       O413   2.479       .  S
Cd409       O411   2.441       .  S
C412        O416   1.262       .  A
C412        C460   1.472       .  S
C417        C422   1.385       .  A
C417        C418   1.405   1_565  A
C417        N423   1.347       .  A
C418        C419   1.406       .  A
C418        H429   1.082       .  S
C419        C428   1.378       .  A
C419        C420   1.385       .  A
C420        C421   1.399   1_545  A
C420        N426   1.343       .  A
C421        C422   1.400       .  A
C421        H430   1.082       .  S
C422        C425   1.372       .  A
N423        C424   1.357       .  A
N423        H433   1.045       .  S
C424        C425   1.393       .  A
C425        H431   1.083       .  S
N426        C427   1.353       .  A
N426        H434   1.045       .  S
C427        C428   1.397       .  A
C428        H432   1.082       .  S
C435        C440   1.385       .  A
C435        C436   1.397       .  A
C435        N441   1.337       .  A
C436        C437   1.396       .  A
C436        H447   1.083       .  S
C437        C446   1.371       .  A
C437        C438   1.385       .  A
C438        C439   1.407       .  A
C438        N444   1.345       .  A
C439        C440   1.406       .  A
C439        H448   1.082       .  S
C440        C443   1.382       .  A
N441        C442   1.352       .  A
N441        H451   1.045       .  S
C442        C443   1.397       .  A
C443        H449   1.082       .  S
N444        C445   1.357       .  A
N444        H452   1.045       .  S
C445        C446   1.391       .  A
C446        H450   1.083       .  S
C453        C458   1.384       .  A
C453        C454   1.410       .  A
C453        N459   1.349       .  A
C454        C455   1.410       .  A
C454        H465   1.082       .  S
C455        C464   1.386       .  A
C455        C456   1.385       .  A
C456        C457   1.399       .  A
C456        N462   1.340       .  A
C457        C458   1.397       .  A
C457        H466   1.082       .  S
C458        C461   1.371       .  A
N459        C460   1.359       .  A
N459        H469   1.045       .  S
C460        C461   1.392       .  A
C461        H467   1.083       .  S
N462        C463   1.353       .  A
N462        H470   1.045       .  S
C463       C1937   1.474       .  S
C463        C464   1.399       .  A
C464        H468   1.082       .  S
C471        C476   1.385       .  A
C471        C472   1.403       .  A
C471        N477   1.346       .  A
C472        C473   1.404       .  A
C472        H483   1.082       .  S
C473        C482   1.377       .  A
C473        C474   1.385       .  A
C474        C475   1.404       .  A
C474        N480   1.346       .  A
C475        C476   1.404       .  A
C475        H484   1.082       .  S
C476        C479   1.377       .  A
N477        C478   1.355       .  A
N477        H487   1.045       .  S
C478        C479   1.396       .  A
C479        H485   1.082       .  S
N480        C481   1.356       .  A
N480        H488   1.045       .  S
C481        C482   1.396       .  A
C482        H486   1.082       .  S
C489        C494   1.385       .  A
C489        C490   1.402       .  A
C489        N495   1.341       .  A
C490        C491   1.401       .  A
C490        H501   1.082       .  S
C491        C500   1.378       .  A
C491        C492   1.385       .  A
C492        C493   1.401       .  A
C492        N498   1.340       .  A
C493        C494   1.400       .  A
C493        H502   1.083       .  S
C494        C497   1.376       .  A
N495        C496   1.354       .  A
N495       H2073   1.044       .  S
C496       C1921   1.463   1_554  S
C496        C497   1.393       .  A
C497        H503   1.083       .  S
N498        C499   1.354       .  A
N498        H506   1.046       .  S
C499        C500   1.394       .  A
C500        H504   1.082       .  S
H505       N2063   1.044       .  S
C507        C512   1.384       .  A
C507        C508   1.408       .  A
C507        N513   1.347       .  A
C508        C509   1.407       .  A
C508        H519   1.082       .  S
C509        C518   1.385       .  A
C509        C510   1.384       .  A
C510        C511   1.403       .  A
C510        N516   1.342       .  A
C511        C512   1.402       .  A
C511        H520   1.082       .  S
C512        C515   1.377       .  A
N513        C514   1.357       .  A
N513        H523   1.045       .  S
C514        C515   1.395       .  A
C515        H521   1.083       .  S
N516        C517   1.355       .  A
N516        H524   1.045       .  S
C517        C518   1.398       .  A
C518        H522   1.082       .  S
C525        C530   1.385       .  A
C525       C2094   1.403   1_554  A
C525        N531   1.342       .  A
C526        C527   1.402   1_565  A
C526       C2093   1.403       .  A
C526        H537   1.082       .  S
C527        C536   1.380       .  A
C527       C2096   1.384       .  A
C528        C529   1.405       .  A
C528       C2095   1.384   1_554  A
C528       N2102   1.343       .  A
C529        C530   1.403   1_545  A
C529        H538   1.082       .  S
C530        C533   1.380       .  A
N531        C532   1.355       .  A
N531       H2109   1.045   1_554  S
C532        C533   1.394       .  A
C533        H539   1.082       .  S
N534        C535   1.356       .  A
N534       C2096   1.343       .  A
N534       H2110   1.045       .  S
C535        C536   1.394       .  A
C536        H540   1.082       .  S
H541       N2099   1.045       .  S
H542       N2102   1.045       .  S
C543        C548   1.385       .  A
C543        C544   1.401       .  A
C543        N549   1.340       .  A
C544        C545   1.400       .  A
C544        H555   1.083       .  S
C545        C554   1.376       .  A
C545        C546   1.385       .  A
C546        C547   1.404       .  A
C546        N552   1.343       .  A
C547        C548   1.403       .  A
C547        H556   1.082       .  S
C548        C551   1.380       .  A
N549        C550   1.354       .  A
N549        H559   1.046       .  S
C550        C551   1.395       .  A
C551        H557   1.082       .  S
N552       C2121   1.355       .  A
N552       H2128   1.045       .  S
C553       C2122   1.394   1_554  A
C553       N2120   1.355   1_554  A
C554       C2121   1.393       .  A
C554        H558   1.082       .  S
H560       N2120   1.045       .  S
C561        C566   1.384       .  A
C561        C562   1.407       .  A
C561        N567   1.346       .  A
C562        C563   1.406       .  A
C562        H573   1.082       .  S
C563        C572   1.383       .  A
C563        C564   1.385       .  A
C564        C565   1.400       .  A
C564        N570   1.339       .  A
C565        C566   1.398       .  A
C565        H574   1.083       .  S
C566        C569   1.374       .  A
N567        C568   1.357       .  A
N567        H577   1.046       .  S
C568        C569   1.393       .  A
C569        H575   1.083       .  S
N570        C571   1.354       .  A
N570        H578   1.045       .  S
C571        C572   1.397       .  A
C572        H576   1.082       .  S
C579        C584   1.385       .  A
C579        C580   1.398       .  A
C579        N585   1.338       .  A
C580        C581   1.397       .  A
C580        H591   1.083       .  S
C581        C590   1.372       .  A
C581        C582   1.385       .  A
C582        C583   1.407       .  A
C582        N588   1.346       .  A
C583        C584   1.405       .  A
C583        H592   1.082       .  S
C584        C587   1.382       .  A
N585        C586   1.352       .  A
N585        H595   1.046       .  S
C586        C587   1.396       .  A
C587        H593   1.082       .  S
N588        C589   1.357       .  A
N588        H596   1.044       .  S
C589        C590   1.391       .  A
C590        H594   1.082       .  S
C597        C602   1.385       .  A
C597        C598   1.399       .  A
C597        N603   1.340       .  A
C598        C599   1.398       .  A
C598        H609   1.082       .  S
C599        C608   1.372       .  A
C599        C600   1.384       .  A
C600        C601   1.407       .  A
C600        N606   1.347       .  A
C601        C602   1.407       .  A
C601        H610   1.082       .  S
C602        C605   1.382       .  A
N603        C604   1.353       .  A
N603        H613   1.044       .  S
C604       C1885   1.469   1_554  S
C604        C605   1.397       .  A
C605       H2179   1.082       .  S
N606        C607   1.358       .  A
N606        H614   1.046       .  S
C607        C608   1.392       .  A
C608        H612   1.082       .  S
H611       C2173   1.082       .  S
C615        C620   1.385       .  A
C615        C616   1.405       .  A
C615        N621   1.347       .  A
C616        C617   1.406       .  A
C616        H627   1.082       .  S
C617        C626   1.378       .  A
C617        C618   1.385       .  A
C618        C619   1.401       .  A
C618        N624   1.344       .  A
C619        C620   1.401       .  A
C619        H628   1.082       .  S
C620        C623   1.373       .  A
N621        C622   1.357       .  A
N621        H631   1.044       .  S
C622        C623   1.393       .  A
C623        H629   1.082       .  S
N624        C625   1.354       .  A
N624        H632   1.045       .  S
C625        C626   1.396       .  A
C626        H630   1.082       .  S
C633        C638   1.385       .  A
C633        C634   1.403       .  A
C633        N639   1.345       .  A
C634       C2203   1.404       .  A
C634        H645   1.082       .  S
C635        C644   1.377       .  A
C635        C636   1.385       .  A
C635       C2202   1.404   1_554  A
C636       C2205   1.401       .  A
C636        N642   1.343       .  A
C637        C638   1.401       .  A
C637       C2204   1.401       .  A
C637       H2214   1.082       .  S
C638        C641   1.373       .  A
N639        C640   1.355       .  A
N639        H649   1.045       .  S
C640        C641   1.393       .  A
C641        H647   1.083       .  S
N642        C643   1.354       .  A
N642        H650   1.045       .  S
C643        C644   1.396       .  A
C644        H648   1.082   1_554  S
H646       C2205   1.082       .  S
C651        C656   1.385       .  A
C651        C652   1.403       .  A
C651        N657   1.344       .  A
C652        C653   1.403       .  A
C652        H663   1.082       .  S
C653        C662   1.378       .  A
C653        C654   1.385       .  A
C654        C655   1.402       .  A
C654        N660   1.343       .  A
C655        C656   1.401       .  A
C655        H664   1.082       .  S
C656        C659   1.375       .  A
N657        C658   1.355       .  A
N657        H667   1.044       .  S
C658        C659   1.394       .  A
C659        H665   1.082       .  S
N660        C661   1.355       .  A
N660        H668   1.045       .  S
C661        C662   1.394       .  A
C662        H666   1.082       .  S
C669        C674   1.384       .  A
C669        C670   1.408       .  A
C669        N675   1.348       .  A
C670        C671   1.407       .  A
C670        H681   1.082       .  S
C671        C680   1.383       .  A
C671        C672   1.384       .  A
C672        C673   1.402       .  A
C672        N678   1.342       .  A
C673        C674   1.401       .  A
C673        H682   1.082       .  S
C674        C677   1.375       .  A
N675        C676   1.358       .  A
N675        H685   1.045       .  S
C676        C677   1.394       .  A
C677        H683   1.082       .  S
N678        C679   1.355       .  A
N678        H686   1.045       .  S
C679        C680   1.397       .  A
C680        H684   1.082       .  S
C687        C692   1.385       .  A
C687        C688   1.402       .  A
C687        N693   1.342       .  A
C688        C689   1.401       .  A
C688        H699   1.083       .  S
C689        C698   1.375       .  A
C689        C690   1.385       .  A
C690        C691   1.401       .  A
C690        N696   1.342       .  A
C691        C692   1.400       .  A
C691        H700   1.082       .  S
C692        C695   1.375       .  A
N693        C694   1.355       .  A
N693        H703   1.046       .  S
C694        C695   1.393       .  A
C695        H701   1.082       .  S
N696        C697   1.354       .  A
N696        H704   1.045       .  S
C697       C1869   1.463       .  S
C697        C698   1.393       .  A
C698        H702   1.082       .  S
C705        C710   1.385       .  A
C705        C706   1.402       .  A
C705        N711   1.342       .  A
C706        C707   1.401       .  A
C706        H717   1.082       .  S
C707        C716   1.377       .  A
C707        C708   1.384       .  A
C708        C709   1.406       .  A
C708        N714   1.346       .  A
C709        C710   1.405       .  A
C709        H718   1.082       .  S
C710        C713   1.382       .  A
N711        C712   1.355       .  A
N711        H721   1.045       .  S
C712        C713   1.397       .  A
C713        H719   1.082       .  S
N714        C715   1.357       .  A
N714        H722   1.044       .  S
C715        C716   1.394       .  A
C716        H720   1.082       .  S
C723        C728   1.385       .  A
C723        C724   1.404       .  A
C723        N729   1.346       .  A
C724        C725   1.404       .  A
C724        H735   1.082       .  S
C725        C734   1.377       .  A
C725        C726   1.385       .  A
C726        C727   1.402       .  A
C726        N732   1.345       .  A
C727        C728   1.403       .  A
C727        H736   1.082       .  S
C728        C731   1.375       .  A
N729        C730   1.356       .  A
N729        H739   1.045       .  S
C730        C731   1.395       .  A
C731        H737   1.082       .  S
N732        C733   1.354       .  A
N732        H740   1.045       .  S
C733        C734   1.396       .  A
C734        H738   1.083       .  S
C741        C746   1.385       .  A
C741        C742   1.404       .  A
C741        N747   1.344       .  A
C742        C743   1.404       .  A
C742        H753   1.082       .  S
C743        C752   1.380       .  A
C743        C744   1.385       .  A
C744        C745   1.402       .  A
C744        N750   1.342       .  A
C745        C746   1.401       .  A
C745        H754   1.082       .  S
C746        C749   1.377       .  A
N747        C748   1.355       .  A
N747        H757   1.044       .  S
C748        C749   1.394       .  A
C749        H755   1.082       .  S
N750        C751   1.355       .  A
N750        H758   1.045       .  S
C751        C752   1.396       .  A
C752        H756   1.082       .  S
C759        C764   1.385       .  A
C759        C760   1.401       .  A
C759        N765   1.342       .  A
C760        C761   1.400       .  A
C760        H771   1.083       .  S
C761        C770   1.374       .  A
C761        C762   1.385       .  A
C762        C763   1.402       .  A
C762        N768   1.343       .  A
C763        C764   1.402       .  A
C763        H772   1.082       .  S
C764        C767   1.377       .  A
N765        C766   1.355       .  A
N765        H775   1.045       .  S
C766        C767   1.394       .  A
C767        H773   1.082       .  S
N768        C769   1.354       .  A
N768        H776   1.045       .  S
C769       C1858   1.464   1_554  S
C769        C770   1.393       .  A
C770       H2342   1.083       .  S
H774       C2338   1.083       .  S
C777        C782   1.384       .  A
C777        C778   1.409       .  A
C777        N783   1.349       .  A
C778        C779   1.408       .  A
C778        H789   1.082       .  S
C779        C788   1.384       .  A
C779        C780   1.385       .  A
C780        C781   1.398       .  A
C780        N786   1.340       .  A
C781        C782   1.398       .  A
C781        H790   1.082       .  S
C782        C785   1.372       .  A
N783        C784   1.358       .  A
N783        H793   1.045       .  S
C784        C785   1.392       .  A
C785        H791   1.082       .  S
N786        C787   1.353       .  A
N786        H794   1.045       .  S
C787        C788   1.398       .  A
C788        H792   1.082       .  S
C795        C800   1.385       .  A
C795        C796   1.401       .  A
C795        N801   1.341       .  A
C796        C797   1.400       .  A
C796        H807   1.082       .  S
C797        C806   1.375       .  A
C797        C798   1.385       .  A
C798        C799   1.402       .  A
C798        N804   1.343       .  A
C799        C800   1.401       .  A
C799       H2376   1.082       .  S
C800        C803   1.377       .  A
N801        C802   1.354       .  A
N801        H811   1.045       .  S
C802        C803   1.394       .  A
C803        H809   1.082       .  S
N804        C805   1.355       .  A
N804        H812   1.044       .  S
C805        C806   1.393       .  A
C806        H810   1.082       .  S
H808       C2367   1.082       .  S
C813        C818   1.385       .  A
C813        C814   1.402       .  A
C813        N819   1.343       .  A
C814        C815   1.401       .  A
C814        H825   1.082       .  S
C815        C824   1.376       .  A
C815        C816   1.384       .  A
C816        C817   1.406       .  A
C816        N822   1.347       .  A
C817        C818   1.406       .  A
C817        H826   1.082       .  S
C818        C821   1.381       .  A
N819        C820   1.354       .  A
N819        H829   1.045       .  S
C820        C821   1.397       .  A
C821        H827   1.082       .  S
N822        C823   1.356       .  A
N822        H830   1.045       .  S
C823        C824   1.395       .  A
C824        H828   1.083       .  S
C831        C836   1.385       .  A
C831        C832   1.407       .  A
C831        N837   1.346       .  A
C832        C833   1.407       .  A
C832        H843   1.082       .  S
C833        C842   1.384       .  A
C833        C834   1.385       .  A
C834        C835   1.399       .  A
C834        N840   1.340       .  A
C835        C836   1.398       .  A
C835        H844   1.082       .  S
C836        C839   1.373       .  A
N837        C838   1.357       .  A
N837        H847   1.045       .  S
C838        C839   1.392       .  A
C839        H845   1.083       .  S
N840        C841   1.353       .  A
N840        H848   1.044       .  S
C841        C842   1.398       .  A
C842        H846   1.082       .  S
C849        C854   1.385       .  A
C849        C850   1.401       .  A
C849        N855   1.342       .  A
C850        C851   1.400       .  A
C850        H861   1.083       .  S
C851        C860   1.373       .  A
C851        C852   1.385       .  A
C852        C853   1.407       .  A
C852        N858   1.347       .  A
C853        C854   1.407       .  A
C853        H862   1.082       .  S
C854        C857   1.383       .  A
N855        C856   1.355       .  A
N855        H865   1.045       .  S
C856       C1833   1.473   1_554  S
C856        C857   1.397       .  A
C857        H863   1.082       .  S
N858        C859   1.357       .  A
N858        H866   1.046       .  S
C859        C860   1.393       .  A
C860        H864   1.082       .  S
C867        C872   1.384       .  A
C867        C868   1.403       .  A
C867        N873   1.343       .  A
C868        C869   1.402       .  A
C868        H879   1.082       .  S
C869        C878   1.377       .  A
C869        C870   1.385       .  A
C870        C871   1.406       .  A
C870        N876   1.345       .  A
C871        C872   1.405       .  A
C871        H880   1.082       .  S
C872        C875   1.382       .  A
N873        C874   1.356       .  A
N873        H883   1.044       .  S
C874       C1807   1.473       .  S
C874        C875   1.396       .  A
C875       H2449   1.082       .  S
N876        C877   1.356       .  A
N876        H884   1.048       .  S
C877        C878   1.395       .  A
C878        H882   1.082       .  S
H881       C2443   1.082       .  S
C885        C890   1.385       .  A
C885        C886   1.402       .  A
C885        N891   1.343       .  A
C886        C887   1.401       .  A
C886        H897   1.082       .  S
C887        C896   1.375       .  A
C887        C888   1.385       .  A
C888        C889   1.401       .  A
C888        N894   1.342       .  A
C889        C890   1.401       .  A
C889        H898   1.082       .  S
C890        C893   1.375       .  A
N891        C892   1.355       .  A
N891        H901   1.045       .  S
C892        C893   1.393       .  A
C893        H899   1.082       .  S
N894        C895   1.354       .  A
N894        H902   1.045       .  S
C895        C896   1.393       .  A
C896        H900   1.082       .  S
C903        C908   1.385       .  A
C903        C904   1.403       .  A
C903        N909   1.341       .  A
C904        C905   1.401       .  A
C904        H915   1.082       .  S
C905        C914   1.379       .  A
C905        C906   1.385       .  A
C906        C907   1.402       .  A
C906        N912   1.341       .  A
C907        C908   1.401       .  A
C907        H916   1.082       .  S
C908        C911   1.378       .  A
N909        C910   1.355       .  A
N909        H919   1.045       .  S
C910        C911   1.394       .  A
C911        H917   1.082       .  S
N912        C913   1.355       .  A
N912        H920   1.045       .  S
C913        C914   1.394       .  A
C914        H918   1.082       .  S
C921        C926   1.385       .  A
C921        C922   1.404       .  A
C921        N927   1.342       .  A
C922        C923   1.402       .  A
C922        H933   1.082       .  S
C923        C932   1.381       .  A
C923        C924   1.384       .  A
C924        C925   1.404       .  A
C924        N930   1.342       .  A
C925        C926   1.402       .  A
C925        H934   1.082       .  S
C926        C929   1.380       .  A
N927        C928   1.356       .  A
N927        H937   1.045       .  S
C928        C929   1.394       .  A
C929        H935   1.082       .  S
N930        C931   1.356       .  A
N930        H938   1.045       .  S
C931        C932   1.395       .  A
C932        H936   1.082       .  S
C939        C944   1.385       .  A
C939        C940   1.402       .  A
C939        N945   1.342       .  A
C940        C941   1.401       .  A
C940        H951   1.082       .  S
C941        C950   1.377       .  A
C941        C942   1.385       .  A
C942        C943   1.404       .  A
C942        N948   1.344       .  A
C943        C944   1.403       .  A
C943        H952   1.082       .  S
C944        C947   1.379       .  A
N945        C946   1.354       .  A
N945        H955   1.045       .  S
C946        C947   1.395       .  A
C947        H953   1.082       .  S
N948        C949   1.355       .  A
N948        H956   1.044       .  S
C949        C950   1.394       .  A
C950        H954   1.082       .  S
C957        C962   1.385       .  A
C957        C958   1.406       .  A
C957        N963   1.346       .  A
C958        C959   1.406       .  A
C958        H969   1.082       .  S
C959        C968   1.381       .  A
C959        C960   1.385       .  A
C960        C961   1.398       .  A
C960        N966   1.340       .  A
C961        C962   1.397       .  A
C961        H970   1.082       .  S
C962        C965   1.370       .  A
N963        C964   1.357       .  A
N963        H973   1.046       .  S
C964       C1739   1.466       .  S
C964        C965   1.391       .  A
C965       H2539   1.082       .  S
N966        C967   1.353       .  A
N966        H974   1.044       .  S
C967        C968   1.396       .  A
C968        H972   1.082       .  S
H971       C2533   1.082       .  S
C975        C980   1.384       .  A
C975        C976   1.408       .  A
C975        N981   1.347       .  A
C976        C977   1.407       .  A
C976        H987   1.082       .  S
C977        C986   1.383       .  A
C977        C978   1.385       .  A
C978        C979   1.400       .  A
C978        N984   1.340       .  A
C979        C980   1.399       .  A
C979        H988   1.082       .  S
C980        C983   1.373       .  A
N981        C982   1.357       .  A
N981        H991   1.045       .  S
C982        C983   1.393       .  A
C983        H989   1.083       .  S
N984        C985   1.354       .  A
N984        H992   1.045       .  S
C985        C986   1.398       .  A
C986        H990   1.082       .  S
C993        C998   1.385       .  A
C993        C994   1.404       .  A
C993        N999   1.343       .  A
C994        C995   1.403       .  A
C994       H1005   1.082       .  S
C995       C1004   1.378       .  A
C995        C996   1.385       .  A
C996        C997   1.403       .  A
C996       N1002   1.344       .  A
C997        C998   1.402       .  A
C997       H1006   1.082       .  S
C998       C1001   1.378       .  A
N999       C1000   1.356       .  A
N999       H1009   1.045       .  S
C1000      C1001   1.394       .  A
C1001      H1007   1.082       .  S
N1002      C1003   1.355       .  A
N1002      H1010   1.045       .  S
C1003      C1004   1.396       .  A
C1004      H1008   1.082       .  S
C1011      C1016   1.384       .  A
C1011      C2580   1.405       .  A
C1011      N1017   1.343       .  A
C1012      C1013   1.404   1_545  A
C1012      C2579   1.405       .  A
C1012      H1023   1.082       .  S
C1013      C1022   1.382       .  A
C1013      C1014   1.384   1_554  A
C1014      C2583   1.404       .  A
C1014      N1020   1.343       .  A
C1015      C1016   1.402   1_565  A
C1015      C2582   1.404       .  A
C1015      H1024   1.082       .  S
C1016      C1019   1.380       .  A
N1017      C1018   1.356       .  A
N1017      H1027   1.045       .  S
C1018      C1019   1.394       .  A
C1019      H1025   1.082       .  S
N1020      C1021   1.356   1_556  A
N1020      H1028   1.044       .  S
C1021      C1022   1.396       .  A
C1022      H1026   1.082       .  S
C1029      C1034   1.385       .  A
C1029      C1030   1.404       .  A
C1029      N1035   1.343       .  A
C1030      C1031   1.402   1_655  A
C1030      H1041   1.082       .  S
C1031      C1040   1.379       .  A
C1031      C1032   1.385       .  A
C1032      C1033   1.403       .  A
C1032      N1038   1.342       .  A
C1033      C1034   1.402   1_455  A
C1033      H1042   1.082       .  S
C1034      C1037   1.378       .  A
N1035      C1036   1.355       .  A
N1035      H1045   1.044       .  S
C1036      C1037   1.395       .  A
C1037      H1043   1.082       .  S
N1038      C1039   1.355       .  A
N1038      H1046   1.045       .  S
C1039      C1040   1.394       .  A
C1040      H1044   1.082       .  S
C1047      C1052   1.385       .  A
C1047      C1048   1.398       .  A
C1047      N1053   1.339       .  A
C1048      C1049   1.397       .  A
C1048      H1059   1.083       .  S
C1049      C1058   1.370       .  A
C1049      C1050   1.385       .  A
C1050      C1051   1.406       .  A
C1050      N1056   1.346       .  A
C1051      C1052   1.405       .  A
C1051      H1060   1.082       .  S
C1052      C1055   1.381       .  A
N1053      C1054   1.353       .  A
N1053      H1063   1.045       .  S
C1054      C1055   1.396       .  A
C1055      H1061   1.082       .  S
N1056      C1057   1.357       .  A
N1056      H1064   1.045       .  S
C1057      C1058   1.390       .  A
C1058      H1062   1.082       .  S
C1065      C1070   1.385       .  A
C1065      C1066   1.401       .  A
C1065      N1071   1.341       .  A
C1066      C1067   1.400       .  A
C1066      H1077   1.082       .  S
C1067      C1076   1.375       .  A
C1067      C1068   1.384       .  A
C1068      C1069   1.407       .  A
C1068      N1074   1.346       .  A
C1069      C1070   1.406       .  A
C1069      H1078   1.082       .  S
C1070      C1073   1.383       .  A
N1071      C1072   1.354       .  A
N1071      H1081   1.045       .  S
C1072      C1755   1.471   1_554  S
C1072      C1073   1.397       .  A
C1073      H1079   1.082       .  S
N1074      C1075   1.357       .  A
N1074      H1082   1.045       .  S
C1075      C1076   1.394       .  A
C1076      H1080   1.082       .  S
C1083      C1088   1.385       .  A
C1083      C1084   1.402       .  A
C1083      N1089   1.342       .  A
C1084      C1085   1.401   1_455  A
C1084      H1095   1.082       .  S
C1085      C1094   1.377       .  A
C1085      C1086   1.385       .  A
C1086      C1087   1.402       .  A
C1086      N1092   1.342       .  A
C1087      C1088   1.401   1_655  A
C1087      H1096   1.082       .  S
C1088      C1091   1.376       .  A
N1089      C1090   1.355       .  A
N1089      H1099   1.044       .  S
C1090      C1091   1.394       .  A
C1091      H1097   1.082       .  S
N1092      C1093   1.355       .  A
N1092      H1100   1.045       .  S
C1093      C1094   1.394       .  A
C1094      H1098   1.082       .  S
C1101      C1106   1.385       .  A
C1101      C1102   1.404   1_545  A
C1101      N1107   1.347       .  A
C1102      C1103   1.405       .  A
C1102      H1113   1.082       .  S
C1103      C1112   1.377       .  A
C1103      C1104   1.385       .  A
C1104      C1105   1.401       .  A
C1104      N1110   1.344       .  A
C1105      C1106   1.401   1_565  A
C1105      H1114   1.082   1_565  S
C1106      C1109   1.373       .  A
N1107      C1108   1.356       .  A
N1107      H1117   1.044       .  S
C1108      C1109   1.394       .  A
C1109      H1115   1.082       .  S
N1110      C1111   1.354       .  A
N1110      H1118   1.045       .  S
C1111      C1112   1.396       .  A
C1112      H1116   1.082       .  S
C1119      C1124   1.385       .  A
C1119      C1120   1.401       .  A
C1119      N1125   1.342       .  A
C1120      C1121   1.400       .  A
C1120      H1131   1.082       .  S
C1121      C1130   1.376       .  A
C1121      C1122   1.385       .  A
C1122      C1123   1.401       .  A
C1122      N1128   1.341       .  A
C1123      C1124   1.400       .  A
C1123      H1132   1.083       .  S
C1124      C1127   1.374       .  A
N1125      C1126   1.354       .  A
N1125      H1135   1.044       .  S
C1126      C1127   1.393       .  A
C1127      H1133   1.083       .  S
N1128      C1129   1.354       .  A
N1128      H1136   1.046       .  S
C1129      C1726   1.463   1_554  S
C1129      C1130   1.393       .  A
C1130      H2702   1.082       .  S
H1134      C2698   1.082       .  S
C1137      C1142   1.385       .  A
C1137      C1138   1.401       .  A
C1137      N1143   1.341       .  A
C1138      C1139   1.399       .  A
C1138      H1149   1.082       .  S
C1139      C1148   1.375       .  A
C1139      C1140   1.384       .  A
C1140      C1141   1.407       .  A
C1140      N1146   1.346       .  A
C1141      C1142   1.407       .  A
C1141      H1150   1.082       .  S
C1142      C1145   1.384       .  A
N1143      C1144   1.354       .  A
N1143      H1153   1.045       .  S
C1144      C1145   1.398       .  A
C1145      H1151   1.082       .  S
N1146      C1147   1.357       .  A
N1146      H1154   1.045       .  S
C1147      C1148   1.393       .  A
C1148      H1152   1.083       .  S
C1155      C1160   1.385       .  A
C1155      C1156   1.403       .  A
C1155      N1161   1.343       .  A
C1156      C1157   1.402       .  A
C1156      H1167   1.082       .  S
C1157      C1166   1.378       .  A
C1157      C1158   1.385       .  A
C1158      C1159   1.401       .  A
C1158      N1164   1.341       .  A
C1159      C1160   1.400       .  A
C1159      H1168   1.082       .  S
C1160      C1163   1.375       .  A
N1161      C1162   1.355       .  A
N1161      H1171   1.045       .  S
C1162      C1163   1.394       .  A
C1163      H1169   1.083       .  S
N1164      C1165   1.354       .  A
N1164      H1172   1.044       .  S
C1165      C1166   1.394       .  A
C1166      H1170   1.082       .  S
C1173      C1178   1.385       .  A
C1173      C1174   1.405       .  A
C1173      N1179   1.345       .  A
C1174      C1175   1.405       .  A
C1174      H1185   1.082       .  S
C1175      C1184   1.381       .  A
C1175      C1176   1.385       .  A
C1176      C1177   1.401       .  A
C1176      N1182   1.341       .  A
C1177      C1178   1.400       .  A
C1177      H1186   1.082       .  S
C1178      C1181   1.374       .  A
N1179      C1180   1.356       .  A
N1179      H1189   1.046       .  S
C1180      C1677   1.469       .  S
C1180      C1181   1.393       .  A
C1181      H2755   1.082       .  S
N1182      C1183   1.354       .  A
N1182      H1190   1.045       .  S
C1183      C1184   1.396       .  A
C1184      H1188   1.082       .  S
H1187      C2749   1.082       .  S
C1191      C1196   1.385       .  A
C1191      C1192   1.402       .  A
C1191      N1197   1.346       .  A
C1192      C1193   1.403       .  A
C1192      H1203   1.082       .  S
C1193      C1202   1.375       .  A
C1193      C1194   1.385       .  A
C1194      C1195   1.402       .  A
C1194      N1200   1.345       .  A
C1195      C1196   1.403       .  A
C1195      H1204   1.082       .  S
C1196      C1199   1.374       .  A
N1197      C1198   1.355       .  A
N1197      H1207   1.045       .  S
C1198      C1199   1.394       .  A
C1199      H1205   1.082       .  S
N1200      C1201   1.355       .  A
N1200      H1208   1.045       .  S
C1201      C1202   1.395       .  A
C1202      H1206   1.082       .  S
C1209      C1214   1.385       .  A
C1209      C1210   1.405       .  A
C1209      N1215   1.345       .  A
C1210      C1211   1.404       .  A
C1210      H1221   1.082       .  S
C1211      C1220   1.380       .  A
C1211      C1212   1.385       .  A
C1212      C1213   1.400       .  A
C1212      N1218   1.341       .  A
C1213      C1214   1.399       .  A
C1213      H1222   1.082       .  S
C1214      C1217   1.374       .  A
N1215      C1216   1.356       .  A
N1215      H1225   1.044       .  S
C1216      C1217   1.393       .  A
C1217      H1223   1.082       .  S
N1218      C1219   1.354       .  A
N1218      H1226   1.045       .  S
C1219      C1220   1.396       .  A
C1220      H1224   1.082       .  S
C1227      C1232   1.385       .  A
C1227      C1228   1.400       .  A
C1227      N1233   1.339       .  A
C1228      C1229   1.398       .  A
C1228      H1239   1.082       .  S
C1229      C1238   1.375       .  A
C1229      C1230   1.385       .  A
C1230      C1231   1.406       .  A
C1230      N1236   1.345       .  A
C1231      C1232   1.404       .  A
C1231      H1240   1.082       .  S
C1232      C1235   1.381       .  A
N1233      C1234   1.353       .  A
N1233      H1243   1.045       .  S
C1234      C1235   1.396       .  A
C1235      H1241   1.082       .  S
N1236      C1237   1.357       .  A
N1236      H1244   1.044       .  S
C1237      C1238   1.392       .  A
C1238      H1242   1.082       .  S
C1245      C1250   1.384       .  A
C1245      C1246   1.407       .  A
C1245      N1251   1.345       .  A
C1246      C1247   1.406       .  A
C1246      H1257   1.082       .  S
C1247      C1256   1.384       .  A
C1247      C1248   1.384       .  A
C1248      C1249   1.404       .  A
C1248      N1254   1.343       .  A
C1249      C1250   1.402       .  A
C1249      H1258   1.082       .  S
C1250      C1253   1.381       .  A
N1251      C1252   1.358       .  A
N1251      H1261   1.045       .  S
C1252      C1253   1.394       .  A
C1253      H1259   1.082       .  S
N1254      C1255   1.356       .  A
N1254      H1262   1.045       .  S
C1255      C1256   1.397       .  A
C1256      H1260   1.082       .  S
C1263      C1268   1.384       .  A
C1263      C1264   1.404       .  A
C1263      N1269   1.345       .  A
C1264      C1265   1.404       .  A
C1264      H1275   1.082       .  S
C1265      C1274   1.379       .  A
C1265      C1266   1.385       .  A
C1266      C1267   1.404       .  A
C1266      N1272   1.344       .  A
C1267      C1268   1.404       .  A
C1267      H1276   1.082       .  S
C1268      C1271   1.379       .  A
N1269      C1270   1.356       .  A
N1269      H1279   1.044       .  S
C1270      C1271   1.396       .  A
C1271      H1277   1.082       .  S
N1272      C1273   1.356       .  A
N1272      H1280   1.045       .  S
C1273      C1274   1.395       .  A
C1274      H1278   1.082       .  S
C1281      C1286   1.385       .  A
C1281      C1282   1.401       .  A
C1281      N1287   1.342       .  A
C1282      C1283   1.401       .  A
C1282      H1293   1.082       .  S
C1283      C1292   1.376       .  A
C1283      C1284   1.385       .  A
C1284      C1285   1.404       .  A
C1284      N1290   1.344       .  A
C1285      C1286   1.403       .  A
C1285      H1294   1.082       .  S
C1286      C1289   1.378       .  A
N1287      C1288   1.354       .  A
N1287      H1297   1.044       .  S
C1288      C1289   1.395       .  A
C1289      H1295   1.082       .  S
N1290      C1291   1.356       .  A
N1290      H1298   1.045       .  S
C1291      C1292   1.393       .  A
C1292      H1296   1.082       .  S
C1299      C1304   1.385       .  A
C1299      C1300   1.398       .  A
C1299      N1305   1.340       .  A
C1300      C1301   1.397       .  A
C1300      H1311   1.082       .  S
C1301      C1310   1.371       .  A
C1301      C1302   1.385       .  A
C1302      C1303   1.406       .  A
C1302      N1308   1.346       .  A
C1303      C1304   1.406       .  A
C1303      H1312   1.082       .  S
C1304      C1307   1.380       .  A
N1305      C1306   1.353       .  A
N1305      H2883   1.045       .  S
C1306      C1624   1.465       .  S
C1306      C1307   1.396       .  A
C1307      H1313   1.082       .  S
N1308      C1309   1.357       .  A
N1308      H1316   1.046       .  S
C1309      C1310   1.391       .  A
C1310      H1314   1.082       .  S
H1315      N2873   1.045       .  S
C1317      C1322   1.385       .  A
C1317      C1318   1.406       .  A
C1317      N1323   1.345       .  A
C1318      C1319   1.405       .  A
C1318      H1329   1.082       .  S
C1319      C1328   1.381       .  A
C1319      C1320   1.385       .  A
C1320      C1321   1.401       .  A
C1320      N1326   1.341       .  A
C1321      C1322   1.400       .  A
C1321      H1330   1.082       .  S
C1322      C1325   1.375       .  A
N1323      C1324   1.356       .  A
N1323      H1333   1.044       .  S
C1324      C1325   1.393       .  A
C1325      H1331   1.083       .  S
N1326      C1327   1.355       .  A
N1326      H1334   1.045       .  S
C1327      C1328   1.396       .  A
C1328      H1332   1.082       .  S
C1335      C1340   1.384       .  A
C1335      C1336   1.405       .  A
C1335      N1341   1.343       .  A
C1336      C2905   1.403       .  A
C1336      H1347   1.082       .  S
C1337      C1346   1.381       .  A
C1337      C1338   1.385   1_554  A
C1337      C2904   1.403       .  A
C1338      C2907   1.403       .  A
C1338      N1344   1.341   1_556  A
C1339      C1340   1.401       .  A
C1339      C2906   1.403       .  A
C1339      H1348   1.082       .  S
C1340      C1343   1.379       .  A
N1341      C1342   1.357       .  A
N1341      H1351   1.045       .  S
C1342      C1343   1.394       .  A
C1343      H1349   1.082       .  S
N1344      C1345   1.355       .  A
N1344      H1352   1.045   1_554  S
C1345      C1346   1.396       .  A
C1346      H1350   1.082       .  S
C1353      C1358   1.385       .  A
C1353      C1354   1.404       .  A
C1353      N1359   1.344       .  A
C1354      C1355   1.403   1_655  A
C1354      H1365   1.082       .  S
C1355      C1364   1.379       .  A
C1355      C1356   1.385       .  A
C1356      C1357   1.403       .  A
C1356      N1362   1.343       .  A
C1357      C1358   1.402   1_455  A
C1357      H1366   1.082       .  S
C1358      C1361   1.378       .  A
N1359      C1360   1.355       .  A
N1359      H1369   1.044       .  S
C1360      C1361   1.395       .  A
C1361      H1367   1.082       .  S
N1362      C1363   1.355       .  A
N1362      H1370   1.045       .  S
C1363      C1364   1.395       .  A
C1364      H1368   1.082       .  S
C1371      C1376   1.384       .  A
C1371      C1372   1.405   1_655  A
C1371      N1377   1.344       .  A
C1372      C1373   1.404       .  A
C1372      H1383   1.082       .  S
C1373      C1382   1.381       .  A
C1373      C1374   1.385       .  A
C1374      C1375   1.402       .  A
C1374      N1380   1.341       .  A
C1375      C1376   1.401   1_455  A
C1375      H1384   1.082       .  S
C1376      C1379   1.378       .  A
N1377      C1378   1.356       .  A
N1377      H1387   1.044       .  S
C1378      C1379   1.394       .  A
C1379      H1385   1.082       .  S
N1380      C1381   1.354       .  A
N1380      H1388   1.045       .  S
C1381      C1382   1.396       .  A
C1382      H1386   1.082       .  S
C1389      C1394   1.385       .  A
C1389      C1390   1.401       .  A
C1389      N1395   1.342       .  A
C1390      C1391   1.400       .  A
C1390      H1401   1.082       .  S
C1391      C1400   1.375       .  A
C1391      C1392   1.385       .  A
C1392      C1393   1.402       .  A
C1392      N1398   1.343       .  A
C1393      C1394   1.402       .  A
C1393      H1402   1.082       .  S
C1394      C1397   1.377       .  A
N1395      C1396   1.355       .  A
N1395      H1405   1.044       .  S
C1396      C1397   1.394       .  A
C1397      H1403   1.082       .  S
N1398      C1399   1.354       .  A
N1398      H1406   1.044       .  S
C1399      C1400   1.393       .  A
C1400      H1404   1.083       .  S
C1407      C1412   1.385       .  A
C1407      C1408   1.402       .  A
C1407      N1413   1.342       .  A
C1408      C1409   1.401       .  A
C1408      H1419   1.082       .  S
C1409      C1418   1.375       .  A
C1409      C1410   1.385       .  A
C1410      C1411   1.406       .  A
C1410      N1416   1.346       .  A
C1411      C1412   1.406       .  A
C1411      H1420   1.082       .  S
C1412      C1415   1.381       .  A
N1413      C1414   1.355       .  A
N1413      H1423   1.044       .  S
C1414      C1415   1.396       .  A
C1415      H1421   1.082       .  S
N1416      C1417   1.356       .  A
N1416      H1424   1.046       .  S
C1417      C1651   1.472   1_554  S
C1417      C1418   1.394       .  A
C1418      H2990   1.083       .  S
H1422      C2986   1.083       .  S
C1425      C1430   1.385       .  A
C1425      C1426   1.399       .  A
C1425      N1431   1.342       .  A
C1426      C1427   1.399       .  A
C1426      H1437   1.082       .  S
C1427      C1436   1.371       .  A
C1427      C1428   1.385       .  A
C1428      C1429   1.405       .  A
C1428      N1434   1.347       .  A
C1429      C1430   1.406       .  A
C1429      H1438   1.082       .  S
C1430      C1433   1.378       .  A
N1431      C1432   1.353       .  A
N1431      H1441   1.044       .  S
C1432      C1433   1.397       .  A
C1433      H1439   1.082       .  S
N1434      C1435   1.357       .  A
N1434      H1442   1.045       .  S
C1435      C1436   1.392       .  A
C1436      H1440   1.082       .  S
C1443      C1448   1.385       .  A
C1443      C1444   1.403       .  A
C1443      N1449   1.343       .  A
C1444      C1445   1.402       .  A
C1444      H1455   1.082       .  S
C1445      C1454   1.379       .  A
C1445      C1446   1.385       .  A
C1446      C1447   1.401       .  A
C1446      N1452   1.340       .  A
C1447      C1448   1.400       .  A
C1447      H1456   1.082       .  S
C1448      C1451   1.376       .  A
N1449      C1450   1.355       .  A
N1449      H1459   1.044       .  S
C1450      C1451   1.394       .  A
C1451      H1457   1.082       .  S
N1452      C1453   1.354       .  A
N1452      H1460   1.045       .  S
C1453      C1454   1.394       .  A
C1454      H1458   1.082       .  S
C1461      C1466   1.385       .  A
C1461      C1462   1.400       .  A
C1461      N1467   1.340       .  A
C1462      C1463   1.399       .  A
C1462      H1473   1.082       .  S
C1463      C1472   1.374       .  A
C1463      C1464   1.385       .  A
C1464      C1465   1.405       .  A
C1464      N1470   1.344       .  A
C1465      C1466   1.404       .  A
C1465      H1474   1.082       .  S
C1466      C1469   1.381       .  A
N1467      C1468   1.354       .  A
N1467      H1477   1.044       .  S
C1468      C1469   1.395       .  A
C1469      H1475   1.082       .  S
N1470      C1471   1.355       .  A
N1470      H1478   1.047       .  S
C1471      C1472   1.394       .  A
C1472      H1476   1.083       .  S
C1479      C1484   1.385       .  A
C1479      C1480   1.403       .  A
C1479      N1485   1.344       .  A
C1480      C1481   1.403       .  A
C1480      H1491   1.082       .  S
C1481      C1490   1.378       .  A
C1481      C1482   1.385       .  A
C1482      C1483   1.401       .  A
C1482      N1488   1.342       .  A
C1483      C1484   1.401       .  A
C1483      H1492   1.082       .  S
C1484      C1487   1.375       .  A
N1485      C1486   1.355       .  A
N1485      H1495   1.045       .  S
C1486      C1487   1.393       .  A
C1487      H1493   1.082       .  S
N1488      C1489   1.355       .  A
N1488      H1496   1.046       .  S
C1489      C1635   1.467   1_554  S
C1489      C1490   1.395       .  A
C1490      H1494   1.082       .  S
C1497      C1502   1.385       .  A
C1497      C1498   1.404       .  A
C1497      N1503   1.344       .  A
C1498      C1499   1.403       .  A
C1498      H1509   1.082       .  S
C1499      C1508   1.378       .  A
C1499      C1500   1.385       .  A
C1500      C1501   1.404       .  A
C1500      N1506   1.345       .  A
C1501      C1502   1.404       .  A
C1501      H3078   1.082       .  S
C1502      C1505   1.379       .  A
N1503      C1504   1.356       .  A
N1503      H1513   1.045       .  S
C1504      C1505   1.395       .  A
C1505      H3079   1.082       .  S
N1506      C1507   1.356       .  A
N1506      H1514   1.045       .  S
C1507      C1508   1.395       .  A
C1508      H1512   1.082       .  S
H1510      C3069   1.082       .  S
H1511      C3073   1.082       .  S
C1515      C1520   1.385       .  A
C1515      C1516   1.400       .  A
C1515      N1521   1.340       .  A
C1516      C1517   1.398       .  A
C1516      H1527   1.082       .  S
C1517      C1526   1.374       .  A
C1517      C1518   1.384       .  A
C1518      C1519   1.408       .  A
C1518      N1524   1.347       .  A
C1519      C1520   1.407       .  A
C1519      H1528   1.082       .  S
C1520      C1523   1.384       .  A
N1521      C1522   1.353       .  A
N1521      H1531   1.045       .  S
C1522      C1523   1.398       .  A
C1523      H1529   1.082       .  S
N1524      C1525   1.357       .  A
N1524      H1532   1.045       .  S
C1525      C1577   1.472       .  S
C1525      C1526   1.393       .  A
C1526      H1530   1.083       .  S
C1533      C1538   1.385       .  A
C1533      C1534   1.402       .  A
C1533      N1539   1.343       .  A
C1534      C1535   1.402       .  A
C1534      H1545   1.082       .  S
C1535      C1544   1.377       .  A
C1535      C1536   1.385       .  A
C1536      C1537   1.401       .  A
C1536      N1542   1.342       .  A
C1537      C1538   1.400       .  A
C1537      H1546   1.083       .  S
C1538      C1541   1.374       .  A
N1539      C1540   1.354       .  A
N1539      H1549   1.045       .  S
C1540      C1541   1.393       .  A
C1541      H1547   1.083       .  S
N1542      C1543   1.354       .  A
N1542      H1550   1.045       .  S
C1543      C1544   1.394       .  A
C1544      H1548   1.082       .  S
C1551      C1556   1.385       .  A
C1551      C1552   1.402       .  A
C1551      N1557   1.346       .  A
C1552      C1553   1.403       .  A
C1552      H1563   1.082       .  S
C1553      C1562   1.374       .  A
C1553      C1554   1.385       .  A
C1554      C1555   1.402       .  A
C1554      N1560   1.346       .  A
C1555      C1556   1.403       .  A
C1555      H1564   1.082       .  S
C1556      C1559   1.374       .  A
N1557      C1558   1.355       .  A
N1557      H1567   1.045       .  S
C1558      C1559   1.395       .  A
C1559      H1565   1.082       .  S
N1560      C1561   1.355       .  A
N1560      H1568   1.045       .  S
C1561      C1562   1.395       .  A
C1562      H1566   1.083       .  S
O1569      C1572   1.266       .  A
O1569     Cd1574   2.467       .  S
C1570      O1579   1.263       .  A
C1570      O1575   1.266       .  A
C1570      C3108   1.464       .  S
O1571      C1577   1.265       .  A
O1571     Cd1574   2.498       .  S
C1572      O1580   1.267       .  A
C1572      C3072   1.473       .  S
C1573      O1578   1.269       .  A
C1573      O1576   1.263       .  A
C1573      C3126   1.470       .  S
Cd1574     O1581   2.449       .  S
Cd1574     O1580   2.469       .  S
Cd1574     O1579   2.431       .  S
Cd1574     O1575   2.470       .  S
Cd1574     O1578   2.501       .  S
Cd1574     O1576   2.424       .  S
C1577      O1581   1.263       .  A
O1582      C1585   1.266       .  A
O1582     Cd1587   2.465       .  S
C1583      O1592   1.265       .  A
C1583      O1588   1.263       .  A
C1583      C3021   1.464       .  S
O1584      C1590   1.269       .  A
O1584     Cd1587   2.499       .  S
C1585      O1593   1.265       .  A
C1585      C3054   1.466       .  S
C1586      O1591   1.267       .  A
C1586      O1589   1.262       .  A
C1586      C3036   1.467       .  S
Cd1587     O1594   2.415       .  S
Cd1587     O1593   2.438       .  S
Cd1587     O1592   2.475       .  S
Cd1587     O1588   2.433       .  S
Cd1587     O1591   2.493       .  S
Cd1587     O1589   2.429       .  S
C1590      O1594   1.262       .  A
C1590      C3129   1.467       .  S
O1595      C1598   1.264       .  A
O1595     Cd1600   2.445       .  S
C1596      O1605   1.265       .  A
C1596      O1601   1.266       .  A
C1596      C2946   1.470       .  S
O1597      C1603   1.262       .  A
O1597     Cd1600   2.449       .  S
C1598      O1606   1.266       .  A
C1598      C2964   1.466       .  S
C1599      O1604   1.264       .  A
C1599      O1602   1.262       .  A
C1599      C2982   1.471       .  S
Cd1600     O1607   2.483       .  S
Cd1600     O1606   2.465       .  S
Cd1600     O1605   2.463       .  S
Cd1600     O1601   2.466       .  S
Cd1600     O1604   2.494       .  S
Cd1600     O1602   2.465       .  S
C1603      O1607   1.267       .  A
C1603      C3000   1.468       .  S
O1608      C1611   1.265       .  A
O1608     Cd1613   2.459       .  S
C1609      O1618   1.265       .  A
C1609      O1614   1.264       .  A
C1609      C2928   1.470       .  S
O1610      C1616   1.268       .  A
O1610     Cd1613   2.499       .  S
C1611      O1619   1.264       .  A
C1611      C3111   1.465       .  S
C1612      O1617   1.265       .  A
C1612      O1615   1.262       .  A
C1612      C3090   1.470       .  S
Cd1613     O1620   2.421       .  S
Cd1613     O1619   2.457       .  S
Cd1613     O1618   2.470       .  S
Cd1613     O1614   2.464       .  S
Cd1613     O1617   2.496       .  S
Cd1613     O1615   2.443       .  S
C1616      O1620   1.263       .  A
C1616      C3003   1.468       .  S
O1621      C1624   1.266       .  A
O1621     Cd1626   2.467       .  S
C1622      O1631   1.264       .  A
C1622      O1627   1.264       .  A
C1622      C2856   1.465       .  S
O1623      C1629   1.266       .  A
O1623     Cd1626   2.493       .  S
C1624      O1632   1.265       .  A
C1625      O1630   1.265       .  A
C1625      O1628   1.263       .  A
C1625      C2892   1.470       .  S
Cd1626     O1633   2.445       .  S
Cd1626     O1632   2.439       .  S
Cd1626     O1631   2.455       .  S
Cd1626     O1627   2.452       .  S
Cd1626     O1630   2.487       .  S
Cd1626     O1628   2.455       .  S
C1629      O1633   1.262       .  A
C1629      C2913   1.469       .  S
O1634      C1637   1.266       .  A
O1634     Cd1639   2.462       .  S
C1635      O1644   1.263       .  A
C1635      O1640   1.265       .  A
O1636      C1642   1.264       .  A
O1636     Cd1639   2.485       .  S
C1637      O1645   1.267       .  A
C1637      C2841   1.473       .  S
C1638      O1643   1.262       .  A
C1638      O1641   1.268       .  A
C1638      C2910   1.471       .  S
Cd1639     O1646   2.452       .  S
Cd1639     O1645   2.474       .  S
Cd1639     O1644   2.460       .  S
Cd1639     O1640   2.467       .  S
Cd1639     O1643   2.440       .  S
Cd1639     O1641   2.500       .  S
C1642      O1646   1.262       .  A
C1642      C3039   1.468       .  S
O1647      C1650   1.268       .  A
O1647     Cd1652   2.467       .  S
C1648      O1657   1.264       .  A
C1648      O1653   1.265       .  A
C1648      C2805   1.469       .  S
O1649      C1655   1.268       .  A
O1649     Cd1652   2.502       .  S
C1650      O1658   1.265       .  A
C1650      C2967   1.464       .  S
C1651      O1656   1.266       .  A
C1651      O1654   1.261       .  A
Cd1652     O1659   2.453       .  S
Cd1652     O1658   2.427       .  S
Cd1652     O1657   2.477       .  S
Cd1652     O1653   2.467       .  S
Cd1652     O1656   2.507       .  S
Cd1652     O1654   2.447       .  S
C1655      O1659   1.262       .  A
C1655      C2820   1.474       .  S
O1660      C1663   1.265       .  A
O1660     Cd1665   2.496       .  S
C1661      O1670   1.266       .  A
C1661      O1666   1.265       .  A
C1661      C2784   1.467       .  S
O1662      C1668   1.268       .  A
O1662     Cd1665   2.506       .  S
C1663      O1671   1.263       .  A
C1663      C2877   1.466       .  S
C1664      O1669   1.266       .  A
C1664      O1667   1.262       .  A
C1664      C2895   1.470       .  S
Cd1665     O1672   2.454       .  S
Cd1665     O1671   2.429       .  S
Cd1665     O1670   2.477       .  S
Cd1665     O1666   2.435       .  S
Cd1665     O1669   2.494       .  S
Cd1665     O1667   2.453       .  S
C1668      O1672   1.264       .  A
C1668      C2823   1.476       .  S
O1673      C1676   1.266       .  A
O1673     Cd1678   2.465       .  S
C1674      O1683   1.264       .  A
C1674      O1679   1.266       .  A
C1674      C2730   1.467       .  S
O1675      C1681   1.268       .  A
O1675     Cd1678   2.496       .  S
C1676      O1684   1.266       .  A
C1676      C3075   1.472       .  S
C1677      O1682   1.266       .  A
C1677      O1680   1.262       .  A
Cd1678     O1685   2.424       .  S
Cd1678     O1684   2.474       .  S
Cd1678     O1683   2.451       .  S
Cd1678     O1679   2.467       .  S
Cd1678     O1682   2.494       .  S
Cd1678     O1680   2.444       .  S
C1681      O1685   1.263       .  A
C1681      C2766   1.468       .  S
O1686      C1689   1.265       .  A
O1686     Cd1691   2.457       .  S
C1687      O1696   1.264       .  A
C1687      O1692   1.266       .  A
C1687      C2694   1.463       .  S
O1688      C1694   1.268       .  A
O1688     Cd1691   2.497       .  S
C1689      O1697   1.265       .  A
C1689      C3018   1.467       .  S
C1690      O1695   1.266       .  A
C1690      O1693   1.263       .  A
C1690      C2715   1.470       .  S
Cd1691     O1698   2.428       .  S
Cd1691     O1697   2.465       .  S
Cd1691     O1696   2.436       .  S
Cd1691     O1692   2.461       .  S
Cd1691     O1695   2.489       .  S
Cd1691     O1693   2.446       .  S
C1694      O1698   1.263       .  A
C1694      C2769   1.469       .  S
O1699      C1702   1.263       .  A
O1699     Cd1704   2.450       .  S
C1700      O1709   1.265       .  A
C1700      O1705   1.264       .  A
C1700      C2733   1.464       .  S
O1701      C1707   1.263       .  A
O1701     Cd1704   2.425       .  S
C1702      O1710   1.265       .  A
C1702      C2661   1.466       .  S
C1703      O1708   1.265       .  A
C1703      O1706   1.262       .  A
C1703      C2751   1.470       .  S
Cd1704     O1711   2.502       .  S
Cd1704     O1710   2.466       .  S
Cd1704     O1709   2.461       .  S
Cd1704     O1705   2.439       .  S
Cd1704     O1708   2.494       .  S
Cd1704     O1706   2.451       .  S
C1707      O1711   1.268       .  A
C1707      C2676   1.470       .  S
O1712      C1715   1.267       .  A
O1712     Cd1717   2.475       .  S
C1713      O1722   1.265       .  A
C1713      O1718   1.266       .  A
C1713      C2604   1.470       .  S
O1714      C1720   1.265       .  A
O1714     Cd1717   2.497       .  S
C1715      O1723   1.264       .  A
C1715      C2622   1.465       .  S
C1716      O1721   1.268       .  A
C1716      O1719   1.263       .  A
C1716      C2679   1.469       .  S
Cd1717     O1724   2.453       .  S
Cd1717     O1723   2.435       .  S
Cd1717     O1722   2.460       .  S
Cd1717     O1718   2.472       .  S
Cd1717     O1721   2.482       .  S
Cd1717     O1719   2.440       .  S
C1720      O1724   1.263       .  A
C1720      C2643   1.472       .  S
O1725      C1728   1.264       .  A
O1725     Cd1730   2.463       .  S
C1726      O1735   1.263       .  A
C1726      O1731   1.265       .  A
O1727      C1733   1.263       .  A
O1727     Cd1730   2.445       .  S
C1728      O1736   1.266       .  A
C1728      C2571   1.471       .  S
C1729      O1734   1.265       .  A
C1729      O1732   1.262       .  A
C1729      C2712   1.473       .  S
Cd1730     O1737   2.487       .  S
Cd1730     O1736   2.478       .  S
Cd1730     O1735   2.444       .  S
Cd1730     O1731   2.461       .  S
Cd1730     O1734   2.512       .  S
Cd1730     O1732   2.456       .  S
C1733      O1737   1.269       .  A
C1733      C2586   1.471       .  S
O1738      C1741   1.264       .  A
O1738     Cd1743   2.445       .  S
C1739      O1748   1.265       .  A
C1739      O1744   1.266       .  A
O1740      C1746   1.268       .  A
O1740     Cd1743   2.501       .  S
C1741      O1749   1.265       .  A
C1741      C2514   1.466       .  S
C1742      O1747   1.266       .  A
C1742      O1745   1.262       .  A
C1742      C2550   1.472       .  S
Cd1743     O1750   2.449       .  S
Cd1743     O1749   2.466       .  S
Cd1743     O1748   2.423       .  S
Cd1743     O1744   2.480       .  S
Cd1743     O1747   2.508       .  S
Cd1743     O1745   2.443       .  S
C1746      O1750   1.262       .  A
C1746      C2589   1.472       .  S
O1751      C1754   1.262       .  A
O1751     Cd1756   2.433       .  S
C1752      O1761   1.266       .  A
C1752      O1757   1.267       .  A
C1752      C2625   1.465       .  S
O1753      C1759   1.267       .  A
O1753     Cd1756   2.499       .  S
C1754      O1762   1.265       .  A
C1754      C2802   1.466       .  S
C1755      O1760   1.265       .  A
C1755      O1758   1.261       .  A
Cd1756     O1763   2.442       .  S
Cd1756     O1762   2.490       .  S
Cd1756     O1761   2.418       .  S
Cd1756     O1757   2.474       .  S
Cd1756     O1760   2.505       .  S
Cd1756     O1758   2.449       .  S
C1759      O1763   1.261       .  A
C1759      C2496   1.469       .  S
O1764      C1767   1.265       .  A
O1764     Cd1769   2.449       .  S
C1765      O1774   1.263       .  A
C1765      O1770   1.265       .  A
C1765      C2535   1.467       .  S
O1766      C1772   1.268       .  A
O1766     Cd1769   2.489       .  S
C1767      O1775   1.266       .  A
C1767      C2787   1.468       .  S
C1768      O1773   1.265       .  A
C1768      O1771   1.263       .  A
C1768      C2553   1.470       .  S
Cd1769     O1776   2.441       .  S
Cd1769     O1775   2.471       .  S
Cd1769     O1774   2.447       .  S
Cd1769     O1770   2.482       .  S
Cd1769     O1773   2.497       .  S
Cd1769     O1771   2.447       .  S
C1772      O1776   1.263       .  A
C1772      C2499   1.470       .  S
O1777      C1780   1.264       .  A
O1777     Cd1782   2.467       .  S
C1778      O1787   1.265       .  A
C1778      O1783   1.265       .  A
C1778      C2460   1.464       .  S
O1779      C1785   1.261       .  A
O1779     Cd1782   2.448       .  S
C1780      O1788   1.265       .  A
C1780      C2931   1.470       .  S
C1781      O1786   1.266       .  A
C1781      O1784   1.264       .  A
C1781      C2445   1.472       .  S
Cd1782     O1789   2.483       .  S
Cd1782     O1788   2.472       .  S
Cd1782     O1787   2.460       .  S
Cd1782     O1783   2.447       .  S
Cd1782     O1786   2.488       .  S
Cd1782     O1784   2.454       .  S
C1785      O1789   1.264       .  A
C1785      C2478   1.466       .  S
O1790      C1793   1.264       .  A
O1790     Cd1795   2.500       .  S
C1791      O1800   1.266       .  A
C1791      O1796   1.265       .  A
C1791      C2949   1.469       .  S
O1792      C1798   1.265       .  A
O1792     Cd1795   2.509       .  S
C1793      O1801   1.263       .  A
C1793      C2409   1.471       .  S
C1794      O1799   1.267       .  A
C1794      O1797   1.264       .  A
C1794      C2481   1.466       .  S
Cd1795     O1802   2.438       .  S
Cd1795     O1801   2.456       .  S
Cd1795     O1800   2.480       .  S
Cd1795     O1796   2.446       .  S
Cd1795     O1799   2.475       .  S
Cd1795     O1797   2.437       .  S
C1798      O1802   1.262       .  A
C1798      C2427   1.471       .  S
O1803      C1806   1.263       .  A
O1803     Cd1808   2.452       .  S
C1804      O1813   1.265       .  A
C1804      O1809   1.265       .  A
C1804      C2463   1.462       .  S
O1805      C1811   1.265       .  A
O1805     Cd1808   2.485       .  S
C1806      O1814   1.265       .  A
C1806      C2370   1.465       .  S
C1807      O1812   1.267       .  A
C1807      O1810   1.264       .  A
Cd1808     O1815   2.475       .  S
Cd1808     O1814   2.463       .  S
Cd1808     O1813   2.455       .  S
Cd1808     O1809   2.444       .  S
Cd1808     O1812   2.491       .  S
Cd1808     O1810   2.458       .  S
C1811      O1815   1.262       .  A
C1811      C2388   1.472       .  S
O1816      C1819   1.266       .  A
O1816     Cd1821   2.454       .  S
C1817      O1826   1.263       .  A
C1817      O1822   1.264       .  A
C1817      C2334   1.467       .  S
O1818      C1824   1.268       .  A
O1818     Cd1821   2.496       .  S
C1819      O1827   1.267       .  A
C1819      C2319   1.470       .  S
C1820      O1825   1.262       .  A
C1820      O1823   1.266       .  A
C1820      C2352   1.473       .  S
Cd1821     O1828   2.440       .  S
Cd1821     O1827   2.476       .  S
Cd1821     O1826   2.461       .  S
Cd1821     O1822   2.473       .  S
Cd1821     O1825   2.441       .  S
Cd1821     O1823   2.516       .  S
C1824      O1828   1.263       .  A
C1824      C2391   1.472       .  S
O1829      C1832   1.264       .  A
O1829     Cd1834   2.448       .  S
C1830      O1839   1.265       .  A
C1830      O1835   1.266       .  A
C1830      C2406   1.468       .  S
O1831      C1837   1.268       .  A
O1831     Cd1834   2.508       .  S
C1832      O1840   1.266       .  A
C1832      C2280   1.471       .  S
C1833      O1838   1.266       .  A
C1833      O1836   1.263       .  A
Cd1834     O1841   2.442       .  S
Cd1834     O1840   2.492       .  S
Cd1834     O1839   2.439       .  S
Cd1834     O1835   2.474       .  S
Cd1834     O1838   2.499       .  S
Cd1834     O1836   2.456       .  S
C1837      O1841   1.262       .  A
C1837      C2298   1.472       .  S
O1842      C1845   1.265       .  A
O1842     Cd1847   2.442       .  S
C1843      O1852   1.263       .  A
C1843      O1848   1.265       .  A
C1843      C2262   1.464       .  S
O1844      C1850   1.269       .  A
O1844     Cd1847   2.489       .  S
C1845      O1853   1.267       .  A
C1845      C2226   1.468       .  S
C1846      O1851   1.266       .  A
C1846      O1849   1.262       .  A
C1846      C2247   1.473       .  S
Cd1847     O1854   2.437       .  S
Cd1847     O1853   2.476       .  S
Cd1847     O1852   2.451       .  S
Cd1847     O1848   2.459       .  S
Cd1847     O1851   2.497       .  S
Cd1847     O1849   2.454       .  S
C1850      O1854   1.263       .  A
C1850      C2301   1.470       .  S
O1855      C1858   1.266       .  A
O1855     Cd1860   2.471       .  S
C1856      O1865   1.266       .  A
C1856      O1861   1.265       .  A
C1856      C2838   1.474       .  S
O1857      C1863   1.265       .  A
O1857     Cd1860   2.497       .  S
C1858      O1866   1.263       .  A
C1859      O1864   1.264       .  A
C1859      O1862   1.268       .  A
C1859      C2208   1.467       .  S
Cd1860     O1867   2.444       .  S
Cd1860     O1866   2.434       .  S
Cd1860     O1865   2.482       .  S
Cd1860     O1861   2.467       .  S
Cd1860     O1864   2.424       .  S
Cd1860     O1862   2.485       .  S
C1863      O1867   1.263       .  A
C1863      C2355   1.470       .  S
O1868      C1871   1.264       .  A
O1868     Cd1873   2.474       .  S
C1869      O1878   1.265       .  A
C1869      O1874   1.266       .  A
O1870      C1876   1.268       .  A
O1870     Cd1873   2.487       .  S
C1871      O1879   1.265       .  A
C1871      C2859   1.469       .  S
C1872      O1877   1.266       .  A
C1872      O1875   1.262       .  A
C1872      C2244   1.475       .  S
Cd1873     O1880   2.440       .  S
Cd1873     O1879   2.463       .  S
Cd1873     O1878   2.438       .  S
Cd1873     O1874   2.451       .  S
Cd1873     O1877   2.515       .  S
Cd1873     O1875   2.452       .  S
C1876      O1880   1.262       .  A
C1876      C2211   1.468       .  S
O1881      C1884   1.266       .  A
O1881     Cd1886   2.485       .  S
C1882      O1891   1.265       .  A
C1882      O1887   1.265       .  A
C1882      C2283   1.473       .  S
O1883      C1889   1.266       .  A
O1883     Cd1886   2.506       .  S
C1884      O1892   1.265       .  A
C1884      C2157   1.468       .  S
C1885      O1890   1.265       .  A
C1885      O1888   1.263       .  A
Cd1886     O1893   2.436       .  S
Cd1886     O1892   2.446       .  S
Cd1886     O1891   2.483       .  S
Cd1886     O1887   2.468       .  S
Cd1886     O1890   2.489       .  S
Cd1886     O1888   2.451       .  S
C1889      O1893   1.263       .  A
C1889      C2190   1.471       .  S
O1894      C1897   1.266       .  A
O1894     Cd1899   2.457       .  S
C1895      O1904   1.263       .  A
C1895      O1900   1.266       .  A
C1895      C2118   1.465       .  S
O1896      C1902   1.266       .  A
O1896     Cd1899   2.496       .  S
C1897      O1905   1.266       .  A
C1897      C2229   1.468       .  S
C1898      O1903   1.268       .  A
C1898      O1901   1.263       .  A
C1898      C2193   1.470       .  S
Cd1899     O1906   2.447       .  S
Cd1899     O1905   2.460       .  S
Cd1899     O1904   2.435       .  S
Cd1899     O1900   2.477       .  S
Cd1899     O1903   2.488       .  S
Cd1899     O1901   2.441       .  S
C1902      O1906   1.263       .  A
C1902      C2136   1.470       .  S
O1907      C1910   1.265       .  A
O1907     Cd1912   2.461       .  S
C1908      O1917   1.265       .  A
C1908      O1913   1.264       .  A
C1908      C2517   1.470       .  S
O1909      C1915   1.267       .  A
O1909     Cd1912   2.486       .  S
C1910      O1918   1.265       .  A
C1910      C2121   1.467       .  S
C1911      O1916   1.265       .  A
C1911      O1914   1.262       .  A
C1911      C2139   1.469       .  S
Cd1912     O1919   2.435       .  S
Cd1912     O1918   2.453       .  S
Cd1912     O1917   2.480       .  S
Cd1912     O1913   2.457       .  S
Cd1912     O1916   2.505       .  S
Cd1912     O1914   2.437       .  S
C1915      O1919   1.262       .  A
C1915      C2100   1.467       .  S
O1920      C1923   1.264       .  A
O1920     Cd1925   2.456       .  S
C1921      O1930   1.265       .  A
C1921      O1926   1.265       .  A
O1922      C1928   1.262       .  A
O1922     Cd1925   2.442       .  S
C1923      O1931   1.267       .  A
C1923      C2568   1.469       .  S
C1924      O1929   1.268       .  A
C1924      O1927   1.262       .  A
C1924      C2103   1.472       .  S
Cd1925     O1932   2.514       .  S
Cd1925     O1931   2.470       .  S
Cd1925     O1930   2.450       .  S
Cd1925     O1926   2.446       .  S
Cd1925     O1929   2.493       .  S
Cd1925     O1927   2.452       .  S
C1928      O1932   1.267       .  A
C1928      C2085   1.474       .  S
O1933      C1936   1.265       .  A
O1933     Cd1938   2.480       .  S
C1934      O1943   1.266       .  A
C1934      O1939   1.264       .  A
C1934      C2373   1.466       .  S
O1935      C1941   1.268       .  A
O1935     Cd1938   2.505       .  S
C1936      O1944   1.265       .  A
C1936      C2013   1.466       .  S
C1937      O1942   1.265       .  A
C1937      O1940   1.263       .  A
Cd1938     O1945   2.447       .  S
Cd1938     O1944   2.433       .  S
Cd1938     O1943   2.469       .  S
Cd1938     O1939   2.447       .  S
Cd1938     O1942   2.511       .  S
Cd1938     O1940   2.455       .  S
C1941      O1945   1.263       .  A
C1941      C2049   1.473       .  S
O1946      C1949   1.266       .  A
O1946     Cd1951   2.470       .  S
C1947      O1956   1.265       .  A
C1947      O1952   1.265       .  A
C1947      C2316   1.467       .  S
O1948      C1954   1.269       .  A
O1948     Cd1951   2.498       .  S
C1949      O1957   1.264       .  A
C1949      C2067   1.464       .  S
C1950      O1955   1.266       .  A
C1950      O1953   1.262       .  A
C1950      C2082   1.475       .  S
Cd1951     O1958   2.438       .  S
Cd1951     O1957   2.442       .  S
Cd1951     O1956   2.462       .  S
Cd1951     O1952   2.453       .  S
Cd1951     O1955   2.507       .  S
Cd1951     O1953   2.462       .  S
C1954      O1958   1.263       .  A
C1954      C2046   1.472       .  S
O1959      C1962   1.265       .  A
O1959     Cd1964   2.474       .  S
C1960      O1969   1.266       .  A
C1960      O1965   1.264       .  A
C1960      C2607   1.468       .  S
O1961      C1967   1.268       .  A
O1961     Cd1964   2.508       .  S
C1962      O1970   1.264       .  A
C1962      C2154   1.463       .  S
C1963      O1968   1.264       .  A
C1963      O1966   1.262       .  A
C1963      C2175   1.471       .  S
Cd1964     O1971   2.419       .  S
Cd1964     O1970   2.423       .  S
Cd1964     O1969   2.468       .  S
Cd1964     O1965   2.451       .  S
Cd1964     O1968   2.511       .  S
Cd1964     O1966   2.446       .  S
C1967      O1971   1.262       .  A
C1967      C1992   1.469       .  S
O1972      C1975   1.264       .  A
O1972     Cd1977   2.451       .  S
C1973      O1982   1.264       .  A
C1973      O1978   1.266       .  A
C1973      C2010   1.463       .  S
O1974      C1980   1.265       .  A
O1974     Cd1977   2.511       .  S
C1975      O1983   1.265       .  A
C1975      C2658   1.465       .  S
C1976      O1981   1.268       .  A
C1976      O1979   1.262       .  A
C1976      C1995   1.467       .  S
Cd1977     O1984   2.432       .  S
Cd1977     O1983   2.462       .  S
Cd1977     O1982   2.417       .  S
Cd1977     O1978   2.474       .  S
Cd1977     O1981   2.479       .  S
Cd1977     O1979   2.437       .  S
C1980      O1984   1.262       .  A
C1980      C2028   1.471       .  S
C1985      C1990   1.385       .  A
C1985      C1986   1.405   1_565  A
C1985      N1991   1.347       .  A
C1986      C1987   1.406       .  A
C1986      H1997   1.082       .  S
C1987      C1996   1.378       .  A
C1987      C1988   1.385       .  A
C1988      C1989   1.399   1_545  A
C1988      N1994   1.342       .  A
C1989      C1990   1.399       .  A
C1989      H1998   1.082       .  S
C1990      C1993   1.371       .  A
N1991      C1992   1.356       .  A
N1991      H2001   1.045       .  S
C1992      C1993   1.393       .  A
C1993      H1999   1.083       .  S
N1994      C1995   1.353       .  A
N1994      H2002   1.045       .  S
C1995      C1996   1.396       .  A
C1996      H2000   1.082       .  S
C2003      C2008   1.385       .  A
C2003      C2004   1.397       .  A
C2003      N2009   1.337       .  A
C2004      C2005   1.395       .  A
C2004      H2015   1.083       .  S
C2005      C2014   1.371       .  A
C2005      C2006   1.385       .  A
C2006      C2007   1.407       .  A
C2006      N2012   1.346       .  A
C2007      C2008   1.406       .  A
C2007      H2016   1.082       .  S
C2008      C2011   1.382       .  A
N2009      C2010   1.352       .  A
N2009      H2019   1.046       .  S
C2010      C2011   1.397       .  A
C2011      H2017   1.082       .  S
N2012      C2013   1.357       .  A
N2012      H2020   1.045       .  S
C2013      C2014   1.390       .  A
C2014      H2018   1.083       .  S
C2021      C2026   1.384       .  A
C2021      C2022   1.409       .  A
C2021      N2027   1.349       .  A
C2022      C2023   1.409       .  A
C2022      H2033   1.082       .  S
C2023      C2032   1.385       .  A
C2023      C2024   1.385       .  A
C2024      C2025   1.399       .  A
C2024      N2030   1.340       .  A
C2025      C2026   1.397       .  A
C2025      H2034   1.082       .  S
C2026      C2029   1.371       .  A
N2027      C2028   1.358       .  A
N2027      H2037   1.045       .  S
C2028      C2029   1.391       .  A
C2029      H2035   1.083       .  S
N2030      C2031   1.353       .  A
N2030      H2038   1.045       .  S
C2031      C2032   1.399       .  A
C2032      H2036   1.082       .  S
C2039      C2044   1.385       .  A
C2039      C2040   1.403       .  A
C2039      N2045   1.346       .  A
C2040      C2041   1.404       .  A
C2040      H2051   1.082       .  S
C2041      C2050   1.377       .  A
C2041      C2042   1.385       .  A
C2042      C2043   1.404       .  A
C2042      N2048   1.346       .  A
C2043      C2044   1.404       .  A
C2043      H2052   1.082       .  S
C2044      C2047   1.376       .  A
N2045      C2046   1.355       .  A
N2045      H2055   1.045       .  S
C2046      C2047   1.395       .  A
C2047      H2053   1.082       .  S
N2048      C2049   1.356       .  A
N2048      H2056   1.045       .  S
C2049      C2050   1.396       .  A
C2050      H2054   1.082       .  S
C2057      C2062   1.385       .  A
C2057      C2058   1.403       .  A
C2057      N2063   1.342       .  A
C2058      C2059   1.402       .  A
C2058      H2069   1.082       .  S
C2059      C2068   1.378       .  A
C2059      C2060   1.385       .  A
C2060      C2061   1.401       .  A
C2060      N2066   1.340       .  A
C2061      C2062   1.399       .  A
C2061      H2070   1.083       .  S
C2062      C2065   1.375       .  A
N2063      C2064   1.354       .  A
C2064      C2065   1.393       .  A
C2065      H2071   1.083       .  S
N2066      C2067   1.353       .  A
N2066      H2074   1.046       .  S
C2067      C2068   1.394       .  A
C2068      H2072   1.082       .  S
C2075      C2080   1.384       .  A
C2075      C2076   1.408       .  A
C2075      N2081   1.347       .  A
C2076      C2077   1.407       .  A
C2076      H2087   1.082       .  S
C2077      C2086   1.385       .  A
C2077      C2078   1.384       .  A
C2078      C2079   1.402       .  A
C2078      N2084   1.342       .  A
C2079      C2080   1.401       .  A
C2079      H2088   1.082       .  S
C2080      C2083   1.377       .  A
N2081      C2082   1.357       .  A
N2081      H2091   1.045       .  S
C2082      C2083   1.395       .  A
C2083      H2089   1.083       .  S
N2084      C2085   1.355       .  A
N2084      H2092   1.045       .  S
C2085      C2086   1.398       .  A
C2086      H2090   1.082       .  S
C2093      C2098   1.385       .  A
C2093      N2099   1.342       .  A
C2094      C2095   1.402   1_565  A
C2094      H2105   1.082       .  S
C2095      C2104   1.380       .  A
C2096      C2097   1.404       .  A
C2097      C2098   1.402   1_545  A
C2097      H2106   1.082       .  S
C2098      C2101   1.380       .  A
N2099      C2100   1.355       .  A
C2100      C2101   1.394       .  A
C2101      H2107   1.082       .  S
N2102      C2103   1.357   1_554  A
C2103      C2104   1.394       .  A
C2104      H2108   1.082       .  S
C2111      C2116   1.385       .  A
C2111      C2112   1.401       .  A
C2111      N2117   1.340       .  A
C2112      C2113   1.400       .  A
C2112      H2123   1.083       .  S
C2113      C2122   1.376       .  A
C2113      C2114   1.385       .  A
C2114      C2115   1.404       .  A
C2114      N2120   1.343       .  A
C2115      C2116   1.402       .  A
C2115      H2124   1.082       .  S
C2116      C2119   1.379       .  A
N2117      C2118   1.354       .  A
N2117      H2127   1.046       .  S
C2118      C2119   1.395       .  A
C2119      H2125   1.082       .  S
C2122      H2126   1.082       .  S
C2129      C2134   1.384       .  A
C2129      C2130   1.407       .  A
C2129      N2135   1.346       .  A
C2130      C2131   1.406       .  A
C2130      H2141   1.082       .  S
C2131      C2140   1.383       .  A
C2131      C2132   1.385       .  A
C2132      C2133   1.400       .  A
C2132      N2138   1.339       .  A
C2133      C2134   1.398       .  A
C2133      H2142   1.083       .  S
C2134      C2137   1.374       .  A
N2135      C2136   1.357       .  A
N2135      H2145   1.046       .  S
C2136      C2137   1.393       .  A
C2137      H2143   1.083       .  S
N2138      C2139   1.353       .  A
N2138      H2146   1.045       .  S
C2139      C2140   1.397       .  A
C2140      H2144   1.082       .  S
C2147      C2152   1.385       .  A
C2147      C2148   1.397       .  A
C2147      N2153   1.338       .  A
C2148      C2149   1.396       .  A
C2148      H2159   1.083       .  S
C2149      C2158   1.372       .  A
C2149      C2150   1.385       .  A
C2150      C2151   1.407       .  A
C2150      N2156   1.346       .  A
C2151      C2152   1.405       .  A
C2151      H2160   1.082       .  S
C2152      C2155   1.381       .  A
N2153      C2154   1.352       .  A
N2153      H2163   1.046       .  S
C2154      C2155   1.396       .  A
C2155      H2161   1.082       .  S
N2156      C2157   1.357       .  A
N2156      H2164   1.044       .  S
C2157      C2158   1.391       .  A
C2158      H2162   1.082       .  S
C2165      C2170   1.385       .  A
C2165      C2166   1.399       .  A
C2165      N2171   1.341       .  A
C2166      C2167   1.398       .  A
C2166      H2177   1.082       .  S
C2167      C2176   1.372       .  A
C2167      C2168   1.384       .  A
C2168      C2169   1.407       .  A
C2168      N2174   1.347       .  A
C2169      C2170   1.407       .  A
C2169      H2178   1.082       .  S
C2170      C2173   1.382       .  A
N2171      C2172   1.354       .  A
N2171      H2181   1.044       .  S
C2172      C2173   1.397       .  A
N2174      C2175   1.358       .  A
N2174      H2182   1.046       .  S
C2175      C2176   1.392       .  A
C2176      H2180   1.082       .  S
C2183      C2188   1.385       .  A
C2183      C2184   1.405       .  A
C2183      N2189   1.347       .  A
C2184      C2185   1.406       .  A
C2184      H2195   1.082       .  S
C2185      C2194   1.378       .  A
C2185      C2186   1.385       .  A
C2186      C2187   1.401       .  A
C2186      N2192   1.344       .  A
C2187      C2188   1.401       .  A
C2187      H2196   1.082       .  S
C2188      C2191   1.373       .  A
N2189      C2190   1.357       .  A
N2189      H2199   1.044       .  S
C2190      C2191   1.393       .  A
C2191      H2197   1.082       .  S
N2192      C2193   1.354       .  A
N2192      H2200   1.045       .  S
C2193      C2194   1.397       .  A
C2194      H2198   1.082       .  S
C2201      C2206   1.385   1_556  A
C2201      C2202   1.404       .  A
C2201      N2207   1.345       .  A
C2202      H2213   1.082       .  S
C2203      C2212   1.376       .  A
C2203      C2204   1.385       .  A
C2204      N2210   1.343       .  A
C2205      C2206   1.401       .  A
C2206      C2209   1.373       .  A
N2207      C2208   1.355       .  A
N2207      H2217   1.044       .  S
C2208      C2209   1.393   1_556  A
C2209      H2215   1.083       .  S
N2210      C2211   1.354       .  A
N2210      H2218   1.045       .  S
C2211      C2212   1.396       .  A
C2212      H2216   1.082       .  S
C2219      C2224   1.385       .  A
C2219      C2220   1.404       .  A
C2219      N2225   1.344       .  A
C2220      C2221   1.403       .  A
C2220      H2231   1.082       .  S
C2221      C2230   1.378       .  A
C2221      C2222   1.385       .  A
C2222      C2223   1.401       .  A
C2222      N2228   1.342       .  A
C2223      C2224   1.401       .  A
C2223      H2232   1.082       .  S
C2224      C2227   1.375       .  A
N2225      C2226   1.356       .  A
N2225      H2235   1.044       .  S
C2226      C2227   1.394       .  A
C2227      H2233   1.082       .  S
N2228      C2229   1.354       .  A
N2228      H2236   1.045       .  S
C2229      C2230   1.395       .  A
C2230      H2234   1.082       .  S
C2237      C2242   1.384       .  A
C2237      C2238   1.408       .  A
C2237      N2243   1.348       .  A
C2238      C2239   1.407       .  A
C2238      H2249   1.082       .  S
C2239      C2248   1.383       .  A
C2239      C2240   1.384       .  A
C2240      C2241   1.402       .  A
C2240      N2246   1.342       .  A
C2241      C2242   1.401       .  A
C2241      H2250   1.082       .  S
C2242      C2245   1.375       .  A
N2243      C2244   1.358       .  A
N2243      H2253   1.045       .  S
C2244      C2245   1.394       .  A
C2245      H2251   1.082       .  S
N2246      C2247   1.355       .  A
N2246      H2254   1.045       .  S
C2247      C2248   1.397       .  A
C2248      H2252   1.082       .  S
C2255      C2260   1.385       .  A
C2255      C2256   1.402       .  A
C2255      N2261   1.342       .  A
C2256      C2257   1.401       .  A
C2256      H2267   1.083       .  S
C2257      C2266   1.375       .  A
C2257      C2258   1.385       .  A
C2258      C2259   1.401       .  A
C2258      N2264   1.342       .  A
C2259      C2260   1.400       .  A
C2259      H2268   1.082       .  S
C2260      C2263   1.375       .  A
N2261      C2262   1.355       .  A
N2261      H2271   1.046       .  S
C2262      C2263   1.393       .  A
C2263      H2269   1.082       .  S
N2264      C2265   1.354   1_556  A
N2264      H2272   1.045       .  S
C2265      C2266   1.393   1_554  A
C2266      H2270   1.082       .  S
C2273      C2278   1.385       .  A
C2273      C2274   1.402       .  A
C2273      N2279   1.341       .  A
C2274      C2275   1.401       .  A
C2274      H2285   1.082       .  S
C2275      C2284   1.377       .  A
C2275      C2276   1.384       .  A
C2276      C2277   1.406       .  A
C2276      N2282   1.346       .  A
C2277      C2278   1.405       .  A
C2277      H2286   1.082       .  S
C2278      C2281   1.382       .  A
N2279      C2280   1.354       .  A
N2279      H2289   1.045       .  S
C2280      C2281   1.397       .  A
C2281      H2287   1.082       .  S
N2282      C2283   1.357       .  A
N2282      H2290   1.044       .  S
C2283      C2284   1.394       .  A
C2284      H2288   1.082       .  S
C2291      C2296   1.385       .  A
C2291      C2292   1.404       .  A
C2291      N2297   1.346       .  A
C2292      C2293   1.404       .  A
C2292      H2303   1.082       .  S
C2293      C2302   1.377       .  A
C2293      C2294   1.385       .  A
C2294      C2295   1.402       .  A
C2294      N2300   1.345       .  A
C2295      C2296   1.403       .  A
C2295      H2304   1.082       .  S
C2296      C2299   1.375       .  A
N2297      C2298   1.356       .  A
N2297      H2307   1.045       .  S
C2298      C2299   1.395       .  A
C2299      H2305   1.082       .  S
N2300      C2301   1.354       .  A
N2300      H2308   1.045       .  S
C2301      C2302   1.396       .  A
C2302      H2306   1.083       .  S
C2309      C2314   1.385       .  A
C2309      C2310   1.404       .  A
C2309      N2315   1.343       .  A
C2310      C2311   1.403       .  A
C2310      H2321   1.082       .  S
C2311      C2320   1.380       .  A
C2311      C2312   1.385       .  A
C2312      C2313   1.402       .  A
C2312      N2318   1.342       .  A
C2313      C2314   1.401       .  A
C2313      H2322   1.082       .  S
C2314      C2317   1.376       .  A
N2315      C2316   1.355       .  A
N2315      H2325   1.044       .  S
C2316      C2317   1.393       .  A
C2317      H2323   1.082       .  S
N2318      C2319   1.355       .  A
N2318      H2326   1.045       .  S
C2319      C2320   1.396       .  A
C2320      H2324   1.082       .  S
C2327      C2332   1.385       .  A
C2327      C2328   1.401       .  A
C2327      N2333   1.342       .  A
C2328      C2329   1.400       .  A
C2328      H2339   1.083       .  S
C2329      C2338   1.374       .  A
C2329      C2330   1.385       .  A
C2330      C2331   1.402       .  A
C2330      N2336   1.343       .  A
C2331      C2332   1.402       .  A
C2331      H2340   1.082       .  S
C2332      C2335   1.377       .  A
N2333      C2334   1.355       .  A
N2333      H2343   1.045       .  S
C2334      C2335   1.394       .  A
C2335      H2341   1.082       .  S
N2336      C2337   1.354       .  A
N2336      H2344   1.045       .  S
C2337      C2338   1.393       .  A
C2345      C2350   1.384       .  A
C2345      C2346   1.409       .  A
C2345      N2351   1.349       .  A
C2346      C2347   1.408       .  A
C2346      H2357   1.082       .  S
C2347      C2356   1.384       .  A
C2347      C2348   1.385       .  A
C2348      C2349   1.399       .  A
C2348      N2354   1.340       .  A
C2349      C2350   1.398       .  A
C2349      H2358   1.082       .  S
C2350      C2353   1.372       .  A
N2351      C2352   1.358       .  A
N2351      H2361   1.045       .  S
C2352      C2353   1.392       .  A
C2353      H2359   1.082       .  S
N2354      C2355   1.353       .  A
N2354      H2362   1.045       .  S
C2355      C2356   1.398       .  A
C2356      H2360   1.082       .  S
C2363      C2368   1.385       .  A
C2363      C2364   1.401       .  A
C2363      N2369   1.341       .  A
C2364      C2365   1.401       .  A
C2364      H2375   1.082       .  S
C2365      C2374   1.375       .  A
C2365      C2366   1.385       .  A
C2366      C2367   1.402       .  A
C2366      N2372   1.343       .  A
C2367      C2368   1.401       .  A
C2368      C2371   1.377       .  A
N2369      C2370   1.354       .  A
N2369      H2379   1.045       .  S
C2370      C2371   1.394       .  A
C2371      H2377   1.082       .  S
N2372      C2373   1.355       .  A
N2372      H2380   1.044       .  S
C2373      C2374   1.394       .  A
C2374      H2378   1.082       .  S
C2381      C2386   1.385       .  A
C2381      C2382   1.402       .  A
C2381      N2387   1.343       .  A
C2382      C2383   1.402       .  A
C2382      H2393   1.082       .  S
C2383      C2392   1.375       .  A
C2383      C2384   1.385       .  A
C2384      C2385   1.405       .  A
C2384      N2390   1.346       .  A
C2385      C2386   1.406       .  A
C2385      H2394   1.082       .  S
C2386      C2389   1.380       .  A
N2387      C2388   1.354       .  A
N2387      H2397   1.045       .  S
C2388      C2389   1.397       .  A
C2389      H2395   1.082       .  S
N2390      C2391   1.356       .  A
N2390      H2398   1.045       .  S
C2391      C2392   1.395       .  A
C2392      H2396   1.083       .  S
C2399      C2404   1.385       .  A
C2399      C2400   1.407       .  A
C2399      N2405   1.346       .  A
C2400      C2401   1.407       .  A
C2400      H2411   1.082       .  S
C2401      C2410   1.384       .  A
C2401      C2402   1.385       .  A
C2402      C2403   1.399       .  A
C2402      N2408   1.340       .  A
C2403      C2404   1.398       .  A
C2403      H2412   1.082       .  S
C2404      C2407   1.373       .  A
N2405      C2406   1.357       .  A
N2405      H2415   1.045       .  S
C2406      C2407   1.392       .  A
C2407      H2413   1.083       .  S
N2408      C2409   1.353       .  A
N2408      H2416   1.044       .  S
C2409      C2410   1.398       .  A
C2410      H2414   1.082       .  S
C2417      C2422   1.385       .  A
C2417      C2418   1.400       .  A
C2417      N2423   1.341       .  A
C2418      C2419   1.399       .  A
C2418      H2429   1.083       .  S
C2419      C2428   1.373       .  A
C2419      C2420   1.385       .  A
C2420      C2421   1.407       .  A
C2420      N2426   1.347       .  A
C2421      C2422   1.407       .  A
C2421      H2430   1.082       .  S
C2422      C2425   1.383       .  A
N2423      C2424   1.354       .  A
N2423      H2433   1.045       .  S
C2424      C2425   1.397       .  A
C2425      H2431   1.082       .  S
N2426      C2427   1.357       .  A
N2426      H2434   1.046       .  S
C2427      C2428   1.393       .  A
C2428      H2432   1.083       .  S
C2435      C2440   1.384       .  A
C2435      C2436   1.403       .  A
C2435      N2441   1.343       .  A
C2436      C2437   1.402       .  A
C2436      H2447   1.082       .  S
C2437      C2446   1.377       .  A
C2437      C2438   1.385       .  A
C2438      C2439   1.406       .  A
C2438      N2444   1.345       .  A
C2439      C2440   1.405       .  A
C2439      H2448   1.082       .  S
C2440      C2443   1.381       .  A
N2441      C2442   1.356       .  A
N2441      H2451   1.044       .  S
C2442      C2443   1.396       .  A
N2444      C2445   1.356       .  A
N2444      H2452   1.048       .  S
C2445      C2446   1.395       .  A
C2446      H2450   1.082       .  S
C2453      C2458   1.385       .  A
C2453      C2454   1.401       .  A
C2453      N2459   1.342       .  A
C2454      C2455   1.401       .  A
C2454      H2465   1.082       .  S
C2455      C2464   1.375       .  A
C2455      C2456   1.385       .  A
C2456      C2457   1.401       .  A
C2456      N2462   1.342       .  A
C2457      C2458   1.401       .  A
C2457      H2466   1.082       .  S
C2458      C2461   1.375       .  A
N2459      C2460   1.355       .  A
N2459      H2469   1.045       .  S
C2460      C2461   1.393       .  A
C2461      H2467   1.082       .  S
N2462      C2463   1.354       .  A
N2462      H2470   1.045       .  S
C2463      C2464   1.393       .  A
C2464      H2468   1.082       .  S
C2471      C2476   1.385       .  A
C2471      C2472   1.403       .  A
C2471      N2477   1.341       .  A
C2472      C2473   1.401       .  A
C2472      H2483   1.082       .  S
C2473      C2482   1.379       .  A
C2473      C2474   1.385       .  A
C2474      C2475   1.402       .  A
C2474      N2480   1.341       .  A
C2475      C2476   1.400       .  A
C2475      H2484   1.082       .  S
C2476      C2479   1.378       .  A
N2477      C2478   1.355       .  A
N2477      H2487   1.045       .  S
C2478      C2479   1.394       .  A
C2479      H2485   1.082       .  S
N2480      C2481   1.355       .  A
N2480      H2488   1.045       .  S
C2481      C2482   1.394       .  A
C2482      H2486   1.082       .  S
C2489      C2494   1.385       .  A
C2489      C2490   1.404       .  A
C2489      N2495   1.342       .  A
C2490      C2491   1.402       .  A
C2490      H2501   1.082       .  S
C2491      C2500   1.380       .  A
C2491      C2492   1.384       .  A
C2492      C2493   1.404       .  A
C2492      N2498   1.342       .  A
C2493      C2494   1.402       .  A
C2493      H2502   1.082       .  S
C2494      C2497   1.380       .  A
N2495      C2496   1.356       .  A
N2495      H2505   1.045       .  S
C2496      C2497   1.394       .  A
C2497      H2503   1.082       .  S
N2498      C2499   1.356       .  A
N2498      H2506   1.045       .  S
C2499      C2500   1.395       .  A
C2500      H2504   1.082       .  S
C2507      C2512   1.385       .  A
C2507      C2508   1.402       .  A
C2507      N2513   1.342       .  A
C2508      C2509   1.401       .  A
C2508      H2519   1.082       .  S
C2509      C2518   1.377       .  A
C2509      C2510   1.385       .  A
C2510      C2511   1.404       .  A
C2510      N2516   1.344       .  A
C2511      C2512   1.402       .  A
C2511      H2520   1.082       .  S
C2512      C2515   1.378       .  A
N2513      C2514   1.354       .  A
N2513      H2523   1.045       .  S
C2514      C2515   1.394       .  A
C2515      H2521   1.082       .  S
N2516      C2517   1.355       .  A
N2516      H2524   1.044       .  S
C2517      C2518   1.394       .  A
C2518      H2522   1.082       .  S
C2525      C2530   1.385       .  A
C2525      C2526   1.406       .  A
C2525      N2531   1.346       .  A
C2526      C2527   1.406       .  A
C2526      H2537   1.082       .  S
C2527      C2536   1.381       .  A
C2527      C2528   1.385       .  A
C2528      C2529   1.398       .  A
C2528      N2534   1.340       .  A
C2529      C2530   1.397       .  A
C2529      H2538   1.082       .  S
C2530      C2533   1.371       .  A
N2531      C2532   1.357       .  A
N2531      H2541   1.046       .  S
C2532      C2533   1.391       .  A
N2534      C2535   1.353       .  A
N2534      H2542   1.044       .  S
C2535      C2536   1.396       .  A
C2536      H2540   1.082       .  S
C2543      C2548   1.384       .  A
C2543      C2544   1.408       .  A
C2543      N2549   1.347       .  A
C2544      C2545   1.407       .  A
C2544      H2555   1.082       .  S
C2545      C2554   1.383       .  A
C2545      C2546   1.385       .  A
C2546      C2547   1.400       .  A
C2546      N2552   1.340       .  A
C2547      C2548   1.399       .  A
C2547      H2556   1.082       .  S
C2548      C2551   1.373       .  A
N2549      C2550   1.357       .  A
N2549      H2559   1.045       .  S
C2550      C2551   1.393       .  A
C2551      H2557   1.083       .  S
N2552      C2553   1.354       .  A
N2552      H2560   1.045       .  S
C2553      C2554   1.397       .  A
C2554      H2558   1.082       .  S
C2561      C2566   1.385       .  A
C2561      C2562   1.404       .  A
C2561      N2567   1.343       .  A
C2562      C2563   1.403       .  A
C2562      H2573   1.082       .  S
C2563      C2572   1.378       .  A
C2563      C2564   1.385       .  A
C2564      C2565   1.403       .  A
C2564      N2570   1.344       .  A
C2565      C2566   1.402       .  A
C2565      H2574   1.082       .  S
C2566      C2569   1.378       .  A
N2567      C2568   1.356       .  A
N2567      H2577   1.045       .  S
C2568      C2569   1.394       .  A
C2569      H2575   1.082       .  S
N2570      C2571   1.355       .  A
N2570      H2578   1.045       .  S
C2571      C2572   1.395       .  A
C2572      H2576   1.082       .  S
C2579      C2584   1.384   1_554  A
C2579      N2585   1.343   1_554  A
C2580      C2581   1.403   1_545  A
C2580      H2591   1.082       .  S
C2581      C2590   1.382       .  A
C2581      C2582   1.384       .  A
C2582      N2588   1.342       .  A
C2583      C2584   1.402   1_565  A
C2583      H2592   1.082       .  S
C2584      C2587   1.380       .  A
N2585      C2586   1.357       .  A
N2585      H2595   1.045   1_556  S
C2586      C2587   1.394       .  A
C2587      H2593   1.082       .  S
N2588      C2589   1.356       .  A
N2588      H2596   1.044       .  S
C2589      C2590   1.395       .  A
C2590      H2594   1.082       .  S
C2597      C2602   1.385       .  A
C2597      C2598   1.403       .  A
C2597      N2603   1.343       .  A
C2598      C2599   1.402   1_655  A
C2598      H2609   1.082       .  S
C2599      C2608   1.378       .  A
C2599      C2600   1.385       .  A
C2600      C2601   1.403       .  A
C2600      N2606   1.342       .  A
C2601      C2602   1.402   1_455  A
C2601      H2610   1.082       .  S
C2602      C2605   1.378       .  A
N2603      C2604   1.355       .  A
N2603      H2613   1.044       .  S
C2604      C2605   1.395       .  A
C2605      H2611   1.082       .  S
N2606      C2607   1.355       .  A
N2606      H2614   1.045       .  S
C2607      C2608   1.394       .  A
C2608      H2612   1.082       .  S
C2615      C2620   1.385       .  A
C2615      C2616   1.398       .  A
C2615      N2621   1.339       .  A
C2616      C2617   1.397       .  A
C2616      H2627   1.083       .  S
C2617      C2626   1.370       .  A
C2617      C2618   1.385       .  A
C2618      C2619   1.406       .  A
C2618      N2624   1.346       .  A
C2619      C2620   1.405       .  A
C2619      H2628   1.082       .  S
C2620      C2623   1.380       .  A
N2621      C2622   1.353       .  A
N2621      H2631   1.045       .  S
C2622      C2623   1.396       .  A
C2623      H2629   1.082       .  S
N2624      C2625   1.357       .  A
N2624      H2632   1.045       .  S
C2625      C2626   1.390       .  A
C2626      H2630   1.082       .  S
C2633      C2638   1.385       .  A
C2633      C2634   1.401       .  A
C2633      N2639   1.341       .  A
C2634      C2635   1.400       .  A
C2634      H2645   1.082       .  S
C2635      C2644   1.375       .  A
C2635      C2636   1.384       .  A
C2636      C2637   1.407       .  A
C2636      N2642   1.346       .  A
C2637      C2638   1.406       .  A
C2637      H2646   1.082       .  S
C2638      C2641   1.383       .  A
N2639      C2640   1.354       .  A
N2639      H2649   1.045       .  S
C2640      C2641   1.397       .  A
C2641      H2647   1.082       .  S
N2642      C2643   1.357       .  A
N2642      H2650   1.045       .  S
C2643      C2644   1.394       .  A
C2644      H2648   1.082       .  S
C2651      C2656   1.385       .  A
C2651      C2652   1.402       .  A
C2651      N2657   1.342       .  A
C2652      C2653   1.401   1_455  A
C2652      H2663   1.082       .  S
C2653      C2662   1.377       .  A
C2653      C2654   1.385       .  A
C2654      C2655   1.402       .  A
C2654      N2660   1.342       .  A
C2655      C2656   1.401   1_655  A
C2655      H2664   1.082       .  S
C2656      C2659   1.376       .  A
N2657      C2658   1.354       .  A
N2657      H2667   1.044       .  S
C2658      C2659   1.394       .  A
C2659      H2665   1.082       .  S
N2660      C2661   1.355       .  A
N2660      H2668   1.045       .  S
C2661      C2662   1.394       .  A
C2662      H2666   1.082       .  S
C2669      C2674   1.385       .  A
C2669      C2670   1.404   1_545  A
C2669      N2675   1.347       .  A
C2670      C2671   1.405       .  A
C2670      H2681   1.082       .  S
C2671      C2680   1.377       .  A
C2671      C2672   1.385       .  A
C2672      C2673   1.401       .  A
C2672      N2678   1.344       .  A
C2673      C2674   1.401   1_565  A
C2673      H2682   1.082   1_565  S
C2674      C2677   1.373       .  A
N2675      C2676   1.356       .  A
N2675      H2685   1.044       .  S
C2676      C2677   1.394       .  A
C2677      H2683   1.082       .  S
N2678      C2679   1.354       .  A
N2678      H2686   1.045       .  S
C2679      C2680   1.396       .  A
C2680      H2684   1.082       .  S
C2687      C2692   1.385       .  A
C2687      C2688   1.401       .  A
C2687      N2693   1.342       .  A
C2688      C2689   1.401       .  A
C2688      H2699   1.082       .  S
C2689      C2698   1.376       .  A
C2689      C2690   1.385       .  A
C2690      C2691   1.401       .  A
C2690      N2696   1.341       .  A
C2691      C2692   1.400       .  A
C2691      H2700   1.083       .  S
C2692      C2695   1.374       .  A
N2693      C2694   1.354       .  A
N2693      H2703   1.044       .  S
C2694      C2695   1.393       .  A
C2695      H2701   1.083       .  S
N2696      C2697   1.354       .  A
N2696      H2704   1.046       .  S
C2697      C2698   1.393       .  A
C2705      C2710   1.384       .  A
C2705      C2706   1.401       .  A
C2705      N2711   1.341       .  A
C2706      C2707   1.399       .  A
C2706      H2717   1.082       .  S
C2707      C2716   1.375       .  A
C2707      C2708   1.384       .  A
C2708      C2709   1.407       .  A
C2708      N2714   1.346       .  A
C2709      C2710   1.407       .  A
C2709      H2718   1.082       .  S
C2710      C2713   1.384       .  A
N2711      C2712   1.354       .  A
N2711      H2721   1.045       .  S
C2712      C2713   1.398       .  A
C2713      H2719   1.082       .  S
N2714      C2715   1.357       .  A
N2714      H2722   1.045       .  S
C2715      C2716   1.393       .  A
C2716      H2720   1.083       .  S
C2723      C2728   1.385       .  A
C2723      C2724   1.403       .  A
C2723      N2729   1.343       .  A
C2724      C2725   1.402       .  A
C2724      H2735   1.082       .  S
C2725      C2734   1.378       .  A
C2725      C2726   1.385       .  A
C2726      C2727   1.400       .  A
C2726      N2732   1.340       .  A
C2727      C2728   1.400       .  A
C2727      H2736   1.082       .  S
C2728      C2731   1.375       .  A
N2729      C2730   1.355       .  A
N2729      H2739   1.045       .  S
C2730      C2731   1.394       .  A
C2731      H2737   1.083       .  S
N2732      C2733   1.354       .  A
N2732      H2740   1.044       .  S
C2733      C2734   1.394       .  A
C2734      H2738   1.082       .  S
C2741      C2746   1.385       .  A
C2741      C2742   1.406       .  A
C2741      N2747   1.345       .  A
C2742      C2743   1.405       .  A
C2742      H2753   1.082       .  S
C2743      C2752   1.381       .  A
C2743      C2744   1.385       .  A
C2744      C2745   1.401       .  A
C2744      N2750   1.341       .  A
C2745      C2746   1.400       .  A
C2745      H2754   1.082       .  S
C2746      C2749   1.374       .  A
N2747      C2748   1.356       .  A
N2747      H2757   1.046       .  S
C2748      C2749   1.393       .  A
N2750      C2751   1.354       .  A
N2750      H2758   1.045       .  S
C2751      C2752   1.396       .  A
C2752      H2756   1.082       .  S
C2759      C2764   1.385       .  A
C2759      C2760   1.402       .  A
C2759      N2765   1.345       .  A
C2760      C2761   1.403       .  A
C2760      H2771   1.082       .  S
C2761      C2770   1.374       .  A
C2761      C2762   1.385       .  A
C2762      C2763   1.402       .  A
C2762      N2768   1.345       .  A
C2763      C2764   1.403       .  A
C2763      H2772   1.082       .  S
C2764      C2767   1.374       .  A
N2765      C2766   1.355       .  A
N2765      H2775   1.045       .  S
C2766      C2767   1.394       .  A
C2767      H2773   1.082       .  S
N2768      C2769   1.355       .  A
N2768      H2776   1.045       .  S
C2769      C2770   1.395       .  A
C2770      H2774   1.082       .  S
C2777      C2782   1.385       .  A
C2777      C2778   1.405       .  A
C2777      N2783   1.345       .  A
C2778      C2779   1.405       .  A
C2778      H2789   1.082       .  S
C2779      C2788   1.380       .  A
C2779      C2780   1.385       .  A
C2780      C2781   1.400       .  A
C2780      N2786   1.341       .  A
C2781      C2782   1.399       .  A
C2781      H2790   1.082       .  S
C2782      C2785   1.373       .  A
N2783      C2784   1.356       .  A
N2783      H2793   1.044       .  S
C2784      C2785   1.392       .  A
C2785      H2791   1.083       .  S
N2786      C2787   1.353       .  A
N2786      H2794   1.045       .  S
C2787      C2788   1.396       .  A
C2788      H2792   1.082       .  S
C2795      C2800   1.385       .  A
C2795      C2796   1.400       .  A
C2795      N2801   1.339       .  A
C2796      C2797   1.398       .  A
C2796      H2807   1.082       .  S
C2797      C2806   1.375       .  A
C2797      C2798   1.385       .  A
C2798      C2799   1.406       .  A
C2798      N2804   1.345       .  A
C2799      C2800   1.405       .  A
C2799      H2808   1.082       .  S
C2800      C2803   1.382       .  A
N2801      C2802   1.353       .  A
N2801      H2811   1.045       .  S
C2802      C2803   1.396       .  A
C2803      H2809   1.082       .  S
N2804      C2805   1.357       .  A
N2804      H2812   1.044       .  S
C2805      C2806   1.392       .  A
C2806      H2810   1.082       .  S
C2813      C2818   1.384       .  A
C2813      C2814   1.407       .  A
C2813      N2819   1.344       .  A
C2814      C2815   1.405       .  A
C2814      H2825   1.082       .  S
C2815      C2824   1.384       .  A
C2815      C2816   1.384       .  A
C2816      C2817   1.405       .  A
C2816      N2822   1.343       .  A
C2817      C2818   1.403       .  A
C2817      H2826   1.082       .  S
C2818      C2821   1.381       .  A
N2819      C2820   1.357       .  A
N2819      H2829   1.045       .  S
C2820      C2821   1.394       .  A
C2821      H2827   1.082       .  S
N2822      C2823   1.356       .  A
N2822      H2830   1.045       .  S
C2823      C2824   1.397       .  A
C2824      H2828   1.082       .  S
C2831      C2836   1.384       .  A
C2831      C2832   1.405       .  A
C2831      N2837   1.345       .  A
C2832      C2833   1.404       .  A
C2832      H2843   1.082       .  S
C2833      C2842   1.380       .  A
C2833      C2834   1.385       .  A
C2834      C2835   1.404       .  A
C2834      N2840   1.344       .  A
C2835      C2836   1.403       .  A
C2835      H2844   1.082       .  S
C2836      C2839   1.379       .  A
N2837      C2838   1.356       .  A
N2837      H2847   1.044       .  S
C2838      C2839   1.396       .  A
C2839      H2845   1.082       .  S
N2840      C2841   1.356       .  A
N2840      H2848   1.045       .  S
C2841      C2842   1.395       .  A
C2842      H2846   1.082       .  S
C2849      C2854   1.385       .  A
C2849      C2850   1.401       .  A
C2849      N2855   1.342       .  A
C2850      C2851   1.400       .  A
C2850      H2861   1.082       .  S
C2851      C2860   1.375       .  A
C2851      C2852   1.385       .  A
C2852      C2853   1.404       .  A
C2852      N2858   1.344       .  A
C2853      C2854   1.403       .  A
C2853      H2862   1.082       .  S
C2854      C2857   1.377       .  A
N2855      C2856   1.354       .  A
N2855      H2865   1.044       .  S
C2856      C2857   1.394       .  A
C2857      H2863   1.082       .  S
N2858      C2859   1.356       .  A
N2858      H2866   1.045       .  S
C2859      C2860   1.393       .  A
C2860      H2864   1.082       .  S
C2867      C2872   1.385       .  A
C2867      C2868   1.397       .  A
C2867      N2873   1.339       .  A
C2868      C2869   1.397       .  A
C2868      H2879   1.082       .  S
C2869      C2878   1.370       .  A
C2869      C2870   1.385       .  A
C2870      C2871   1.406       .  A
C2870      N2876   1.347       .  A
C2871      C2872   1.406       .  A
C2871      H2880   1.082       .  S
C2872      C2875   1.381       .  A
N2873      C2874   1.352       .  A
C2874      C2875   1.396       .  A
C2875      H2881   1.082       .  S
N2876      C2877   1.357       .  A
N2876      H2884   1.046       .  S
C2877      C2878   1.390       .  A
C2878      H2882   1.082       .  S
C2885      C2890   1.385       .  A
C2885      C2886   1.406       .  A
C2885      N2891   1.345       .  A
C2886      C2887   1.405       .  A
C2886      H2897   1.082       .  S
C2887      C2896   1.381       .  A
C2887      C2888   1.385       .  A
C2888      C2889   1.401       .  A
C2888      N2894   1.341       .  A
C2889      C2890   1.400       .  A
C2889      H2898   1.082       .  S
C2890      C2893   1.375       .  A
N2891      C2892   1.356       .  A
N2891      H2901   1.044       .  S
C2892      C2893   1.394       .  A
C2893      H2899   1.083       .  S
N2894      C2895   1.355       .  A
N2894      H2902   1.045       .  S
C2895      C2896   1.396       .  A
C2896      H2900   1.082       .  S
C2903      C2908   1.384   1_554  A
C2903      C2904   1.405       .  A
C2903      N2909   1.342       .  A
C2904      H2915   1.082       .  S
C2905      C2914   1.381       .  A
C2905      C2906   1.385       .  A
C2906      N2912   1.341       .  A
C2907      C2908   1.401       .  A
C2907      H2916   1.082       .  S
C2908      C2911   1.380       .  A
N2909      C2910   1.357   1_554  A
N2909      H2919   1.045       .  S
C2910      C2911   1.394       .  A
C2911      H2917   1.082       .  S
N2912      C2913   1.355       .  A
N2912      H2920   1.045       .  S
C2913      C2914   1.396       .  A
C2914      H2918   1.082       .  S
C2921      C2926   1.385       .  A
C2921      C2922   1.403       .  A
C2921      N2927   1.343       .  A
C2922      C2923   1.403   1_655  A
C2922      H2933   1.082       .  S
C2923      C2932   1.378       .  A
C2923      C2924   1.385       .  A
C2924      C2925   1.403       .  A
C2924      N2930   1.343       .  A
C2925      C2926   1.403   1_455  A
C2925      H2934   1.082       .  S
C2926      C2929   1.378       .  A
N2927      C2928   1.355       .  A
N2927      H2937   1.044       .  S
C2928      C2929   1.395       .  A
C2929      H2935   1.082       .  S
N2930      C2931   1.355       .  A
N2930      H2938   1.045       .  S
C2931      C2932   1.395       .  A
C2932      H2936   1.082       .  S
C2939      C2944   1.384       .  A
C2939      C2940   1.405   1_655  A
C2939      N2945   1.344       .  A
C2940      C2941   1.404       .  A
C2940      H2951   1.082       .  S
C2941      C2950   1.381       .  A
C2941      C2942   1.385       .  A
C2942      C2943   1.402       .  A
C2942      N2948   1.341       .  A
C2943      C2944   1.401   1_455  A
C2943      H2952   1.082       .  S
C2944      C2947   1.377       .  A
N2945      C2946   1.356       .  A
N2945      H2955   1.044       .  S
C2946      C2947   1.394       .  A
C2947      H2953   1.082       .  S
N2948      C2949   1.354       .  A
N2948      H2956   1.045       .  S
C2949      C2950   1.396       .  A
C2950      H2954   1.082       .  S
C2957      C2962   1.385       .  A
C2957      C2958   1.401       .  A
C2957      N2963   1.342       .  A
C2958      C2959   1.400       .  A
C2958      H2969   1.082       .  S
C2959      C2968   1.374       .  A
C2959      C2960   1.385       .  A
C2960      C2961   1.402       .  A
C2960      N2966   1.343       .  A
C2961      C2962   1.402       .  A
C2961      H2970   1.082       .  S
C2962      C2965   1.377       .  A
N2963      C2964   1.355       .  A
N2963      H2973   1.044       .  S
C2964      C2965   1.394       .  A
C2965      H2971   1.082       .  S
N2966      C2967   1.354       .  A
N2966      H2974   1.044       .  S
C2967      C2968   1.393       .  A
C2968      H2972   1.083       .  S
C2975      C2980   1.385       .  A
C2975      C2976   1.402       .  A
C2975      N2981   1.343       .  A
C2976      C2977   1.401       .  A
C2976      H2987   1.082       .  S
C2977      C2986   1.375       .  A
C2977      C2978   1.385       .  A
C2978      C2979   1.406       .  A
C2978      N2984   1.346       .  A
C2979      C2980   1.406       .  A
C2979      H2988   1.082       .  S
C2980      C2983   1.381       .  A
N2981      C2982   1.355       .  A
N2981      H2991   1.044       .  S
C2982      C2983   1.396       .  A
C2983      H2989   1.082       .  S
N2984      C2985   1.356       .  A
N2984      H2992   1.046       .  S
C2985      C2986   1.395       .  A
C2993      C2998   1.385       .  A
C2993      C2994   1.399       .  A
C2993      N2999   1.342       .  A
C2994      C2995   1.399       .  A
C2994      H3005   1.082       .  S
C2995      C3004   1.371       .  A
C2995      C2996   1.385       .  A
C2996      C2997   1.405       .  A
C2996      N3002   1.347       .  A
C2997      C2998   1.406       .  A
C2997      H3006   1.082       .  S
C2998      C3001   1.378       .  A
N2999      C3000   1.353       .  A
N2999      H3009   1.044       .  S
C3000      C3001   1.397       .  A
C3001      H3007   1.082       .  S
N3002      C3003   1.357       .  A
N3002      H3010   1.045       .  S
C3003      C3004   1.392       .  A
C3004      H3008   1.082       .  S
C3011      C3016   1.385       .  A
C3011      C3012   1.404       .  A
C3011      N3017   1.343       .  A
C3012      C3013   1.402       .  A
C3012      H3023   1.082       .  S
C3013      C3022   1.379       .  A
C3013      C3014   1.385       .  A
C3014      C3015   1.401       .  A
C3014      N3020   1.340       .  A
C3015      C3016   1.400       .  A
C3015      H3024   1.082       .  S
C3016      C3019   1.376       .  A
N3017      C3018   1.355       .  A
N3017      H3027   1.044       .  S
C3018      C3019   1.394       .  A
C3019      H3025   1.082       .  S
N3020      C3021   1.354       .  A
N3020      H3028   1.045       .  S
C3021      C3022   1.395       .  A
C3022      H3026   1.082       .  S
C3029      C3034   1.385       .  A
C3029      C3030   1.400       .  A
C3029      N3035   1.340       .  A
C3030      C3031   1.399       .  A
C3030      H3041   1.082       .  S
C3031      C3040   1.374       .  A
C3031      C3032   1.385       .  A
C3032      C3033   1.405       .  A
C3032      N3038   1.344       .  A
C3033      C3034   1.404       .  A
C3033      H3042   1.082       .  S
C3034      C3037   1.381       .  A
N3035      C3036   1.354       .  A
N3035      H3045   1.044       .  S
C3036      C3037   1.395       .  A
C3037      H3043   1.082       .  S
N3038      C3039   1.355       .  A
N3038      H3046   1.047       .  S
C3039      C3040   1.394       .  A
C3040      H3044   1.083       .  S
C3047      C3052   1.385       .  A
C3047      C3048   1.403       .  A
C3047      N3053   1.344       .  A
C3048      C3049   1.403       .  A
C3048      H3059   1.082       .  S
C3049      C3058   1.378       .  A
C3049      C3050   1.385       .  A
C3050      C3051   1.401       .  A
C3050      N3056   1.342       .  A
C3051      C3052   1.400       .  A
C3051      H3060   1.083       .  S
C3052      C3055   1.375       .  A
N3053      C3054   1.355       .  A
N3053      H3063   1.045       .  S
C3054      C3055   1.393       .  A
C3055      H3061   1.082       .  S
N3056      C3057   1.354       .  A
N3056      H3064   1.046       .  S
C3057      C3058   1.394       .  A
C3058      H3062   1.082       .  S
C3065      C3070   1.385       .  A
C3065      C3066   1.404       .  A
C3065      N3071   1.344       .  A
C3066      C3067   1.403       .  A
C3066      H3077   1.082       .  S
C3067      C3076   1.379       .  A
C3067      C3068   1.385       .  A
C3068      C3069   1.404       .  A
C3068      N3074   1.345       .  A
C3069      C3070   1.404       .  A
C3070      C3073   1.379       .  A
N3071      C3072   1.356       .  A
N3071      H3081   1.045       .  S
C3072      C3073   1.395       .  A
N3074      C3075   1.356       .  A
N3074      H3082   1.045       .  S
C3075      C3076   1.395       .  A
C3076      H3080   1.082       .  S
C3083      C3088   1.385       .  A
C3083      C3084   1.400       .  A
C3083      N3089   1.340       .  A
C3084      C3085   1.399       .  A
C3084      H3095   1.082       .  S
C3085      C3094   1.374       .  A
C3085      C3086   1.384       .  A
C3086      C3087   1.407       .  A
C3086      N3092   1.346       .  A
C3087      C3088   1.406       .  A
C3087      H3096   1.082       .  S
C3088      C3091   1.383       .  A
N3089      C3090   1.354       .  A
N3089      H3099   1.045       .  S
C3090      C3091   1.397       .  A
C3091      H3097   1.082       .  S
N3092      C3093   1.357       .  A
N3092      H3100   1.045       .  S
C3093      C3094   1.393       .  A
C3094      H3098   1.083       .  S
C3101      C3106   1.385       .  A
C3101      C3102   1.402       .  A
C3101      N3107   1.343       .  A
C3102      C3103   1.401       .  A
C3102      H3113   1.082       .  S
C3103      C3112   1.376       .  A
C3103      C3104   1.385       .  A
C3104      C3105   1.401       .  A
C3104      N3110   1.342       .  A
C3105      C3106   1.400       .  A
C3105      H3114   1.083       .  S
C3106      C3109   1.374       .  A
N3107      C3108   1.354       .  A
N3107      H3117   1.045       .  S
C3108      C3109   1.393       .  A
C3109      H3115   1.083       .  S
N3110      C3111   1.354       .  A
N3110      H3118   1.045       .  S
C3111      C3112   1.394       .  A
C3112      H3116   1.082       .  S
C3119      C3124   1.385       .  A
C3119      C3120   1.402       .  A
C3119      N3125   1.346       .  A
C3120      C3121   1.403       .  A
C3120      H3131   1.082       .  S
C3121      C3130   1.373       .  A
C3121      C3122   1.385       .  A
C3122      C3123   1.402       .  A
C3122      N3128   1.346       .  A
C3123      C3124   1.403       .  A
C3123      H3132   1.082       .  S
C3124      C3127   1.374       .  A
N3125      C3126   1.355       .  A
N3125      H3135   1.045       .  S
C3126      C3127   1.395       .  A
C3127      H3133   1.082       .  S
N3128      C3129   1.355       .  A
N3128      H3136   1.045       .  S
C3129      C3130   1.394       .  A
C3130      H3134   1.083       .  S
