geometry optimzed in LAMMPS
_audit_creation_date              2020-12-01 
_audit_creation_method            'lammps2cif' 
_symmetry_space_group_name_H-M    'P1' 
_symmetry_Int_Tables_number       1 
_symmetry_cell_setting            triclinic 
loop_ 
_symmetry_equiv_pos_as_xyz 
  x,y,z 
_cell_length_a                    38.70796803 
_cell_length_b                    38.64409812061198 
_cell_length_c                    38.67028962858424 
_cell_angle_alpha                 90.20119942011908 
_cell_angle_beta                  90.0926811592196 
_cell_angle_gamma                 90.11162677445164 
loop_ 
_atom_site_label 
_atom_site_type_symbol 
_atom_site_fract_x 
_atom_site_fract_y 
_atom_site_fract_z 
_atom_site_charge 
C1          C  0.32594040  0.21301650  0.52542560     0.03000
C2          C  0.32187168  0.22801935  0.49326771    -0.13200
C3          C  0.33858489  0.21447073  0.46443428     0.00500
C4          C  0.36218360  0.18728837  0.46887520    -0.11700
C5          C  0.36384307  0.16994805  0.50075038     0.03000
C6          C  0.34646842  0.18367671  0.52943868    -0.11100
H7          H  0.30280082  0.24836921  0.49037345     0.08600
H8          H  0.37662303  0.17765905  0.44702427     0.06100
H9          H  0.34695693  0.17046968  0.55411788     0.05900
C10         C  0.14412548  0.40717812  0.46367004     0.03000
C11         C  0.11298597  0.42664576  0.46405270    -0.13200
C12         C  0.09706333  0.43665761  0.49565430     0.00500
C13         C  0.11336198  0.42705869  0.52692125    -0.11700
C14         C  0.14252527  0.40500335  0.52745118     0.03000
C15         C  0.15802401  0.39604437  0.49554739    -0.11100
H16         H  0.10092363  0.43343371  0.43971940     0.08600
H17         H  0.10235866  0.43556657  0.55114834     0.06100
H18         H  0.18018305  0.37895838  0.49534929     0.05900
C19         C  0.12943019  0.52729560  0.35922710     0.03000
C20         C  0.14399510  0.55908715  0.35169969    -0.13200
C21         C  0.13469354  0.58853275  0.37018453     0.00500
C22         C  0.10680318  0.58596887  0.39365416    -0.11700
C23         C  0.08977873  0.55409877  0.39808359     0.03000
C24         C  0.10412788  0.52419495  0.38428923    -0.11100
H25         H  0.16077195  0.56104043  0.32945312     0.08600
H26         H  0.09639685  0.60883410  0.40595957     0.06100
H27         H  0.09190086  0.49924404  0.38820493     0.05900
C28         C  0.32292974  0.52262419  0.17776903     0.03000
C29         C  0.34217981  0.52242136  0.14662398    -0.13200
C30         C  0.35346557  0.55355978  0.13074863     0.00500
C31         C  0.34555093  0.58547311  0.14788046    -0.11700
C32         C  0.32719539  0.58621407  0.17991670     0.03000
C33         C  0.31594000  0.55451787  0.19396851    -0.11100
H34         H  0.34717618  0.49784863  0.13404469     0.08600
H35         H  0.35320790  0.60970069  0.13615454     0.06100
H36         H  0.30019657  0.55477943  0.21712958     0.05900
C37         C  0.47856080  0.20472824  0.33352639     0.03000
C38         C  0.48086795  0.17470206  0.35345391    -0.13200
C39         C  0.45228036  0.16206077  0.37178522     0.00500
C40         C  0.42021852  0.17964814  0.36841741    -0.11700
C41         C  0.41738995  0.20929747  0.34683091     0.03000
C42         C  0.44693596  0.22146331  0.32987864    -0.11100
H43         H  0.50551440  0.16154623  0.35512180     0.08600
H44         H  0.39798085  0.17064740  0.38262182     0.06100
H45         H  0.44536097  0.24428311  0.31370208     0.05900
C46         C  0.45406872  0.41681659  0.17256349     0.03000
C47         C  0.45713756  0.44365734  0.14847523    -0.13200
C48         C  0.48795791  0.44875930  0.13034463     0.00500
C49         C  0.51810273  0.43254618  0.14222298    -0.11700
C50         C  0.51586219  0.40745282  0.16851966     0.03000
C51         C  0.48356462  0.39825808  0.18163805    -0.11100
H52         H  0.43441463  0.45825808  0.14117431     0.08600
H53         H  0.54264708  0.43883807  0.13059805     0.06100
H54         H  0.48158382  0.37619655  0.19869495     0.05900
C55         C  0.11170570  0.37921262  0.96052338     0.03000
C56         C  0.09053917  0.40903192  0.96507074    -0.13200
C57         C  0.08591845  0.42511466  0.99784266     0.00500
C58         C  0.09924681  0.40774369  0.02722704    -0.11700
C59         C  0.11847874  0.37642296  0.02427162     0.03000
C60         C  0.12556284  0.36364170  0.99065443    -0.11100
H61         H  0.07757539  0.42008276  0.94313987     0.08600
H62         H  0.09549992  0.41912730  0.05257845     0.06100
H63         H  0.14341557  0.34237835  0.98767714     0.05900
C64         C  0.35652084  0.24455851  0.96287384     0.03000
C65         C  0.37437373  0.21327877  0.96352629    -0.13200
C66         C  0.38694810  0.20078247  0.99496065     0.00500
C67         C  0.37878738  0.21792536  0.02565845    -0.11700
C68         C  0.36077215  0.24897462  0.02416937     0.03000
C69         C  0.35274465  0.26393464  0.99278081    -0.11100
H70         H  0.37645024  0.19768040  0.94031297     0.08600
H71         H  0.38472572  0.20647772  0.05051107     0.06100
H72         H  0.33745102  0.28747838  0.99226993     0.05900
O73         O  0.10297757  0.33922640  0.74512953    -0.88300
C74         C  0.23674390  0.25108779  0.63316538     1.11700
O75         O  0.18159245  0.33086701  0.74366381    -1.36100
O76         O  0.16331360  0.21952099  0.67377263    -0.89800
O77         O  0.12881585  0.37401148  0.78362877    -0.90500
O78         O  0.16267853  0.28989480  0.81543867    -0.79300
O79         O  0.13631506  0.28321348  0.70599115    -1.01400
C80         C  0.22679071  0.21313522  0.78283635     1.21800
O81         O  0.23812450  0.29980750  0.77272688    -1.36300
Mn82       Mn  0.23350327  0.32376457  0.72216846     1.82100
O83         O  0.19828158  0.22846871  0.78825194    -0.78400
O84         O  0.20558750  0.19537408  0.70456801    -0.87800
C85         C  0.29830160  0.28232813  0.70412689     1.12800
C86         C  0.17760217  0.19356395  0.68778573     1.07600
O87         O  0.25853540  0.37333458  0.73680820    -0.79300
O88         O  0.20924150  0.27298374  0.71385402    -1.33000
O89         O  0.23127806  0.37056274  0.78299021    -0.98500
C90         C  0.26533669  0.27208440  0.85157756     1.06300
Mn91       Mn  0.24424918  0.23160889  0.71165612     1.48600
O92         O  0.24122381  0.29428956  0.85164391    -0.87700
Mn93       Mn  0.18154724  0.37212505  0.77929887     1.49600
O94         O  0.14474086  0.38691808  0.70165772    -0.91600
C95         C  0.12158698  0.26332722  0.72549158     1.19500
C96         C  0.16202875  0.41219287  0.71371793     1.11500
Mn97       Mn  0.18687766  0.27887974  0.76544876     1.81000
O98         O  0.28163202  0.26328897  0.72244449    -0.96800
Mn99       Mn  0.14071863  0.33359268  0.70754020     1.49300
C100        C  0.10267111  0.35857211  0.77159656     1.08000
Mn101      Mn  0.27914069  0.26406169  0.77229698     1.49900
C102        C  0.31644702  0.32774986  0.80015852     1.11000
O103        O  0.18726510  0.33815762  0.81619524    -1.02600
O104        O  0.25045396  0.23664417  0.65902078    -0.92200
C105        C  0.16625191  0.31920233  0.82977363     1.22200
O106        O  0.24642980  0.22674466  0.76236966    -1.02900
O107        O  0.20845182  0.26726503  0.63395435    -0.90300
O108        O  0.31669495  0.30293313  0.77844492    -0.90000
O109        O  0.18062446  0.41012767  0.74076677    -0.90000
Mn110      Mn  0.17229218  0.27296502  0.67266235     1.47900
O111        O  0.28470505  0.31188841  0.69976472    -0.78400
C112        C  0.25312364  0.38573726  0.76682704     1.15300
O113        O  0.13665352  0.25739464  0.75384094    -0.77200
O114        O  0.22324422  0.34718586  0.67241002    -0.76800
Mn115      Mn  0.23753784  0.33351600  0.81538723     1.51100
O116        O  0.27778815  0.25869807  0.82447923    -0.89100
O117        O  0.17383823  0.32354026  0.67104937    -0.96700
O118        O  0.28979316  0.33794421  0.81578644    -0.91700
C119        C  0.19455067  0.34289867  0.65708171     1.13100
C120        C  0.11821754  0.02194198  0.33667797     0.03000
C121        C  0.09773061  0.02001801  0.36631193    -0.13200
C122        C  0.08472940  0.05046465  0.38129299     0.00500
C123        C  0.09025683  0.08231361  0.36458053    -0.11700
C124        C  0.10839362  0.08338751  0.33312404     0.03000
C125        C  0.12107086  0.05293702  0.31887529    -0.11100
H126        H  0.09521529  0.99548250  0.37954479     0.08600
H127        H  0.08296143  0.10630699  0.37711993     0.06100
H128        H  0.13863611  0.05443159  0.29704305     0.05900
C129        C  0.30143126  0.02779021  0.15093986     0.03000
C130        C  0.28656321  0.06016103  0.15926560    -0.13200
C131        C  0.30046852  0.09153815  0.14646425     0.00500
C132        C  0.32946914  0.08981824  0.12394243    -0.11700
C133        C  0.34545409  0.05788590  0.11531349     0.03000
C134        C  0.33052360  0.02711804  0.12861934    -0.11100
H135        H  0.26485352  0.06102817  0.17689367     0.08600
H136        H  0.33974646  0.11350646  0.11319790     0.06100
H137        H  0.34225755  0.00242985  0.12254497     0.05900
O138        O  0.26975770  0.80160940  0.14615087    -0.88300
C139        C  0.17210933  0.70786349  0.29165864     1.11700
O140        O  0.26535564  0.80466549  0.22515700    -1.36100
O141        O  0.15228496  0.74226127  0.21864368    -0.89800
O142        O  0.30465906  0.84281128  0.16645102    -0.90500
O143        O  0.22813386  0.87777403  0.20547694    -0.79300
O144        O  0.21413314  0.76602208  0.18584778    -1.01400
C145        C  0.15172495  0.85692759  0.27150567     1.21800
O146        O  0.23892773  0.83844741  0.28082598    -1.36300
Mn147      Mn  0.25810715  0.78527850  0.27786617     1.82100
O148        O  0.16497232  0.85631848  0.24129260    -0.78400
O149        O  0.12545809  0.78309479  0.24885184    -0.87800
C150        C  0.21336322  0.77065440  0.34082208     1.12800
C151        C  0.12585313  0.75951898  0.22548840     1.07600
O152        O  0.30946050  0.79597902  0.30007104    -0.79300
O153        O  0.20595222  0.78114827  0.25625773    -1.33000
O154        O  0.31153450  0.84181745  0.27106262    -0.98500
C155        C  0.21800835  0.92208791  0.30256340     1.06300
Mn156      Mn  0.16260385  0.78699162  0.28947347     1.48600
O157        O  0.24371036  0.91920245  0.28276770    -0.87700
Mn158      Mn  0.30820433  0.83871574  0.22047779     1.49600
O159        O  0.31569179  0.75699435  0.18841264    -0.91600
C160        C  0.19559488  0.78441758  0.16884194     1.19500
C161        C  0.34299030  0.76958311  0.20105989     1.11500
Mn162      Mn  0.21482953  0.82973840  0.23049332     1.81000
O163        O  0.19679029  0.79304048  0.32611140    -0.96800
Mn164      Mn  0.26393545  0.76589168  0.18695796     1.49300
C165        C  0.28795608  0.82866089  0.14173539     1.08000
Mn166      Mn  0.20524223  0.84318997  0.32269876     1.49900
C167        C  0.27309638  0.86106484  0.35932667     1.11000
O168        O  0.27782542  0.87887388  0.22863169    -1.02600
O169        O  0.15682127  0.73570254  0.29769610    -0.92200
C170        C  0.25684076  0.89308753  0.20951291     1.22200
O171        O  0.16549000  0.83735243  0.29151851    -1.02900
O172        O  0.19535429  0.70502677  0.26851616    -0.90300
O173        O  0.24547705  0.84341130  0.35835717    -0.90000
O174        O  0.34445344  0.79845680  0.21673737    -0.90000
Mn175      Mn  0.20331153  0.73724324  0.22539717     1.47900
O176        O  0.24321244  0.76455330  0.32842135    -0.78400
C177        C  0.32576321  0.82355077  0.29233475     1.15300
O178        O  0.19125318  0.81485910  0.18077947    -0.77200
O179        O  0.27869057  0.73200225  0.26963644    -0.76800
Mn180      Mn  0.27779463  0.87785491  0.27948737     1.51100
O181        O  0.20588000  0.89722524  0.31981158    -0.89100
O182        O  0.25305815  0.73141875  0.22243000    -0.96700
O183        O  0.28535895  0.87708739  0.33336873    -0.91700
C184        C  0.27159643  0.71560903  0.24195290     1.13100
C185        C  0.96037696  0.20797274  0.33973623     0.03000
C186        C  0.99314704  0.21506298  0.32633721    -0.13200
C187        C  0.02233878  0.19588392  0.33619047     0.00500
C188        C  0.01909424  0.17214682  0.36388889    -0.11700
C189        C  0.98732873  0.16835516  0.38139744     0.03000
C190        C  0.95790683  0.18417954  0.36725179    -0.11100
H191        H  0.99650989  0.23617566  0.30863766     0.08600
H192        H  0.04083914  0.15695399  0.37217494     0.06100
H193        H  0.93295365  0.17903037  0.37878464     0.05900
C194        C  0.97888049  0.39748367  0.15937208     0.03000
C195        C  0.98141746  0.42538153  0.13684805    -0.13200
C196        C  0.95239357  0.43721221  0.11873166     0.00500
C197        C  0.92061286  0.41944286  0.12273256    -0.11700
C198        C  0.91819616  0.39106692  0.14583624     0.03000
C199        C  0.94764921  0.38045060  0.16376829    -0.11100
H200        H  0.00624304  0.43804520  0.13387885     0.08600
H201        H  0.89829297  0.42750480  0.10800347     0.06100
H202        H  0.94623182  0.35900759  0.18175840     0.05900
O203        O  0.80164174  0.25440726  0.31571166    -0.88300
C204        C  0.60655778  0.24723929  0.27183039     1.11700
O205        O  0.74739082  0.29759593  0.27595394    -1.36100
O206        O  0.67771756  0.19065211  0.24605705    -0.89800
O207        O  0.82740775  0.29664049  0.28576019    -0.90500
O208        O  0.79120204  0.28683896  0.20134075    -0.79300
O209        O  0.73716577  0.22436493  0.28334462    -1.01400
C210        C  0.70318391  0.25851703  0.15880140     1.21800
O211        O  0.71861212  0.32746325  0.21628680    -1.36300
Mn212      Mn  0.69626967  0.32062991  0.26804809     1.82100
O213        O  0.73148480  0.25405139  0.17417274    -0.78400
O214        O  0.65114357  0.21399725  0.20048330    -0.87800
C215        C  0.63325765  0.33718406  0.22805358     1.12800
C216        C  0.66217522  0.18817528  0.21742305     1.07600
O217        O  0.70590977  0.37111852  0.29125988    -0.79300
O218        O  0.68941123  0.26918220  0.24537949    -1.33000
O219        O  0.75315434  0.36738550  0.26618173    -0.98500
C220        C  0.74766396  0.35429486  0.13538524     1.06300
Mn221      Mn  0.64964346  0.26775499  0.20789441     1.48600
O222        O  0.76229111  0.36647239  0.16213527    -0.87700
Mn223      Mn  0.78827503  0.33274938  0.27851314     1.49600
O224        O  0.75311772  0.29900967  0.35530749    -0.91600
C225        C  0.75748331  0.21174074  0.26267228     1.19500
C226        C  0.76964139  0.32726990  0.35793629     1.11500
Mn227      Mn  0.74100353  0.27635921  0.22392340     1.81000
O228        O  0.64828311  0.31777139  0.20866860    -0.96800
Mn229      Mn  0.74778081  0.26143923  0.31664800     1.49300
C230        C  0.82847275  0.26920029  0.30370279     1.08000
Mn231      Mn  0.68307381  0.32946211  0.17516900     1.49900
C232        C  0.68996789  0.40918294  0.19338119     1.11000
O233        O  0.78932933  0.33369833  0.22773208    -1.02600
O234        O  0.60981585  0.26227405  0.24306132    -0.92200
C235        C  0.80445535  0.31602126  0.20708186     1.22200
O236        O  0.68320625  0.27856363  0.17219092    -1.02900
O237        O  0.63210605  0.23465502  0.28833750    -0.90300
O238        O  0.67497993  0.38344257  0.17907753    -0.90000
O239        O  0.78459662  0.34113009  0.33213982    -0.90000
Mn240      Mn  0.68603703  0.22931948  0.28209938     1.47900
O241        O  0.64699178  0.34229565  0.25705077    -0.78400
C242        C  0.73519549  0.38399176  0.28595059     1.15300
O243        O  0.76288868  0.22748441  0.23478279    -0.77200
O244        O  0.67376679  0.31087042  0.31769168    -0.76800
Mn245      Mn  0.75437413  0.36757789  0.21534142     1.51100
O246        O  0.71955622  0.33730927  0.13615754    -0.89100
O247        O  0.69750528  0.26233056  0.31802610    -0.96700
O248        O  0.71799330  0.40639472  0.21000941    -0.91700
C249        C  0.67845800  0.28242127  0.33267392     1.13100
C250        C  0.64948657  0.18741875  0.98336838     0.03000
C251        C  0.67016004  0.18494020  0.01283862    -0.13200
C252        C  0.65615292  0.17314887  0.04412191     0.00500
C253        C  0.62312278  0.15700497  0.04383343    -0.11700
C254        C  0.60328963  0.15635956  0.01325551     0.03000
C255        C  0.61616586  0.17315418  0.98416481    -0.11100
H256        H  0.69542031  0.19559291  0.01253062     0.08600
H257        H  0.61200073  0.14764632  0.06774731     0.06100
H258        H  0.59933262  0.17614671  0.96197727     0.05900
C259        C  0.82016560  0.39860897  0.01418942     0.03000
C260        C  0.83824503  0.43000196  0.01465219    -0.13200
C261        C  0.85129375  0.44456670  0.98396767     0.00500
C262        C  0.84562414  0.42615564  0.95230316    -0.11700
C263        C  0.82810153  0.39352898  0.95211028     0.03000
C264        C  0.81534322  0.38075342  0.98328192    -0.11100
H265        H  0.84107739  0.44356558  0.03906974     0.08600
H266        H  0.85390272  0.43730684  0.92811673     0.06100
H267        H  0.79941555  0.35762365  0.98328648     0.05900
C268        C  0.93103314  0.19449947  0.67022676     0.03000
C269        C  0.96240321  0.20716522  0.68411649    -0.13200
C270        C  0.99471091  0.19864950  0.66952517     0.00500
C271        C  0.99546389  0.17593299  0.64079327    -0.11700
C272        C  0.96492452  0.16439103  0.62436862     0.03000
C273        C  0.93277704  0.17282032  0.64024020    -0.11100
H274        H  0.96158305  0.22478320  0.70596289     0.08600
H275        H  0.02009049  0.16749770  0.63081758     0.06100
H276        H  0.90934510  0.16212980  0.62942031     0.05900
C277        C  0.99685325  0.39242932  0.86520285     0.03000
C278        C  0.00139793  0.42232009  0.88500141    -0.13200
C279        C  0.97280659  0.43779201  0.90066420     0.00500
C280        C  0.94058441  0.42116644  0.89956431    -0.11700
C281        C  0.93567611  0.39334046  0.87687128     0.03000
C282        C  0.96416836  0.37861607  0.86061185    -0.11100
H283        H  0.02629382  0.43523784  0.88505799     0.08600
H284        H  0.91876765  0.43218954  0.91300167     0.06100
H285        H  0.96049763  0.35876263  0.84101576     0.05900
O286        O  0.79485949  0.37319973  0.79775806    -0.88300
C287        C  0.60664278  0.31971900  0.79965779     1.11700
O288        O  0.74701671  0.32903895  0.75441419    -1.36100
O289        O  0.67887510  0.29416254  0.85742584    -0.89800
O290        O  0.82400175  0.33286073  0.76845021    -0.90500
O291        O  0.79275360  0.25465138  0.76658065    -0.79300
O292        O  0.73372276  0.33773237  0.82426847    -1.01400
C293        C  0.70540767  0.20929437  0.78887518     1.21800
O294        O  0.72278201  0.27074389  0.72281746    -1.36300
Mn295      Mn  0.69775212  0.32081991  0.72828429     1.82100
O296        O  0.73184045  0.22678842  0.79708898    -0.78400
O297        O  0.65214164  0.25087859  0.83005868    -0.87800
C298        C  0.63490982  0.27809888  0.70797657     1.12800
C299        C  0.66388841  0.26481774  0.85728552     1.07600
O300        O  0.71287698  0.34565722  0.67974479    -0.79300
O301        O  0.68908260  0.29718163  0.77892327    -1.33000
O302        O  0.76198645  0.32384353  0.68571873    -0.98500
C303        C  0.75602257  0.19414216  0.69432117     1.06300
Mn304      Mn  0.65076363  0.25798208  0.77728527     1.48600
O305        O  0.76650492  0.22156916  0.68021893    -0.87700
Mn306      Mn  0.79211412  0.33050023  0.72515412     1.49600
O307        O  0.74777172  0.40758450  0.74881913    -0.91600
C308        C  0.75483620  0.32107823  0.84010476     1.19500
C309        C  0.77278119  0.40890439  0.72764174     1.11500
Mn310      Mn  0.74175299  0.27755905  0.77577568     1.81000
O311        O  0.65043449  0.25870423  0.72708220    -0.96800
Mn312      Mn  0.74271999  0.37111759  0.78826025     1.49300
C313        C  0.82164385  0.35523030  0.79245938     1.08000
Mn314      Mn  0.68921665  0.22804361  0.71767022     1.49900
C315        C  0.69694679  0.25320877  0.64040158     1.11000
O316        O  0.79493121  0.28009603  0.71922247    -1.02600
O317        O  0.60997664  0.29232725  0.78198698    -0.92200
C318        C  0.80796820  0.25839766  0.73786638     1.22200
O319        O  0.68584825  0.22280862  0.76809899    -1.02900
O320        O  0.63104134  0.33506439  0.81514028    -0.90300
O321        O  0.68498478  0.23369704  0.66395038    -0.90000
O322        O  0.79264707  0.38378535  0.72174456    -0.90000
Mn323      Mn  0.68377446  0.33260484  0.82001188     1.47900
O324        O  0.64907653  0.30734049  0.70303655    -0.78400
C325        C  0.74409813  0.34378110  0.66974327     1.15300
O326        O  0.76180691  0.29150449  0.82728949    -0.77200
O327        O  0.67144453  0.37016452  0.73798917    -0.76800
Mn328      Mn  0.76014254  0.27387466  0.68341744     1.51100
O329        O  0.72913488  0.19235241  0.71283336    -0.89100
O330        O  0.69257577  0.36985053  0.78757944    -0.96700
O331        O  0.72323496  0.27254311  0.64420178    -0.91700
C332        C  0.67322302  0.38410314  0.76757680     1.13100
C333        C  0.13882620  0.70955350  0.99109440     0.03000
C334        C  0.12143597  0.67778343  0.99148944    -0.13200
C335        C  0.10437682  0.66592316  0.02122082     0.00500
C336        C  0.10727786  0.68593236  0.05204521    -0.11700
C337        C  0.12579067  0.71788900  0.05209484     0.03000
C338        C  0.14143721  0.72900194  0.02138730    -0.11100
H339        H  0.12076984  0.66249293  0.96795565     0.08600
H340        H  0.09608893  0.67648027  0.07586272     0.06100
H341        H  0.15698535  0.75236821  0.02131002     0.05900
C342        C  0.31386272  0.89461724  0.00924008     0.03000
C343        C  0.34421643  0.91413446  0.00719521    -0.13200
C344        C  0.35138340  0.93463722  0.97829216     0.00500
C345        C  0.32983201  0.93214428  0.94920204    -0.11700
C346        C  0.30246106  0.90796640  0.94877043     0.03000
C347        C  0.29356748  0.89070341  0.97946999    -0.11100
H348        H  0.36194183  0.91402020  0.02881829     0.08600
H349        H  0.33491828  0.94802802  0.92680326     0.06100
H350        H  0.27141808  0.87352921  0.97988618     0.05900
C351        C  0.09445938  0.00412474  0.67697826     0.03000
C352        C  0.10870906  0.03518012  0.68943982    -0.13200
C353        C  0.10359615  0.06609848  0.67156406     0.00500
C354        C  0.08443729  0.06631185  0.64101600    -0.11700
C355        C  0.07108255  0.03561162  0.62698272     0.03000
C356        C  0.07517437  0.00462759  0.64565097    -0.11100
H357        H  0.12595478  0.03490734  0.71155783     0.08600
H358        H  0.08231732  0.09039292  0.62686796     0.06100
H359        H  0.06574233  0.98057227  0.63463952     0.05900
C360        C  0.31082865  0.04006976  0.84686925     0.03000
C361        C  0.33965621  0.04176390  0.86852819    -0.13200
C362        C  0.35582217  0.07350083  0.87658478     0.00500
C363        C  0.33898894  0.10470513  0.86642815    -0.11700
C364        C  0.30676197  0.10328973  0.84834129     0.03000
C365        C  0.29348213  0.07061260  0.83891841    -0.11100
H366        H  0.35063069  0.01772028  0.87749384     0.08600
H367        H  0.35120678  0.12940270  0.87152537     0.06100
H368        H  0.27028578  0.06903580  0.82323371     0.05900
O369        O  0.32737690  0.83983824  0.73997141    -0.88300
C370        C  0.19524960  0.75087888  0.85894641     1.11700
O371        O  0.24853465  0.83239840  0.74506699    -1.36100
O372        O  0.26699363  0.72052176  0.81666208    -0.89800
O373        O  0.30081434  0.87817998  0.70620161    -0.90500
O374        O  0.26625077  0.79340859  0.67407715    -0.79300
O375        O  0.29303589  0.78374246  0.78111233    -1.01400
C376        C  0.20562777  0.71356394  0.70837551     1.21800
O377        O  0.19155123  0.80063686  0.71691573    -1.36300
Mn378      Mn  0.19780708  0.82422271  0.76736209     1.82100
O379        O  0.23288100  0.73017291  0.70121117    -0.78400
O380        O  0.22543462  0.69424445  0.78647417    -0.87800
C381        C  0.13421981  0.78424186  0.78496484     1.12800
C382        C  0.25348456  0.69354104  0.80351978     1.07600
O383        O  0.17221913  0.87262215  0.75495353    -0.79300
O384        O  0.22158661  0.77339991  0.77538661    -1.33000
O385        O  0.19627210  0.87288861  0.70683212    -0.98500
C386        C  0.17043451  0.76825917  0.63734594     1.06300
Mn387      Mn  0.18679235  0.73171886  0.77911936     1.48600
O388        O  0.18955032  0.79490371  0.63856022    -0.87700
Mn389      Mn  0.24690832  0.87474847  0.71138597     1.49600
O390        O  0.28865930  0.88837058  0.78475832    -0.91600
C391        C  0.30664216  0.76254797  0.76228975     1.19500
C392        C  0.27069217  0.91411047  0.77515246     1.11500
Mn393      Mn  0.24300448  0.78055290  0.72332062     1.81000
O394        O  0.14952632  0.76357462  0.76716032    -0.96800
Mn395      Mn  0.29050292  0.83440885  0.77900758     1.49300
C396        C  0.32763414  0.86179054  0.71557337     1.08000
Mn397      Mn  0.15194246  0.76323237  0.71690232     1.49900
C398        C  0.11012360  0.82473415  0.68984362     1.11000
O399        O  0.24066351  0.84098257  0.67465017    -1.02600
O400        O  0.18027175  0.73600071  0.83344010    -0.92200
C401        C  0.26285866  0.82351674  0.66163086     1.22200
O402        O  0.18567038  0.72741214  0.72826114    -1.02900
O403        O  0.22220686  0.76921166  0.85532839    -0.90300
O404        O  0.11299781  0.80000154  0.71097795    -0.90000
O405        O  0.24849325  0.91218645  0.75089966    -0.90000
Mn406      Mn  0.25826591  0.77418751  0.81578445     1.47900
O407        O  0.14859384  0.81312231  0.78950606    -0.78400
C408        C  0.17454793  0.88558192  0.72504243     1.15300
O409        O  0.29277266  0.75844376  0.73323107    -0.77200
O410        O  0.20835132  0.84807719  0.81633631    -0.76800
Mn411      Mn  0.19019582  0.83449294  0.67485715     1.51100
O412        O  0.15451585  0.75609767  0.66341724    -0.89100
O413        O  0.25735875  0.82449394  0.81531622    -0.96700
O414        O  0.13568164  0.83713771  0.67340496    -0.91700
C415        C  0.23780658  0.84439292  0.82967639     1.13100
C416        C  0.95462558  0.71996512  0.14714856     0.03000
C417        C  0.95257696  0.68771302  0.13120650    -0.13200
C418        C  0.98132171  0.67409181  0.11447626     0.00500
C419        C  0.01271514  0.69290456  0.11515050    -0.11700
C420        C  0.01522175  0.72459403  0.13395411     0.03000
C421        C  0.98532775  0.73801745  0.14840994    -0.11100
H422        H  0.92847725  0.67337111  0.13200695     0.08600
H423        H  0.03542552  0.68181888  0.10317753     0.06100
H424        H  0.98613484  0.76089508  0.16430492     0.05900
C425        C  0.95072437  0.90604547  0.31288820     0.03000
C426        C  0.98402850  0.90007212  0.29885583    -0.13200
C427        C  0.01423536  0.91461181  0.31384050     0.00500
C428        C  0.01025115  0.93392293  0.34531843    -0.11700
C429        C  0.97782427  0.93799065  0.36197234     0.03000
C430        C  0.94831752  0.92485227  0.34458557    -0.11100
H431        H  0.98677337  0.88247080  0.27729146     0.08600
H432        H  0.03278188  0.94514199  0.35764974     0.06100
H433        H  0.92320638  0.92812504  0.35646311     0.05900
C434        C  0.82567743  0.04234986  0.32578675     0.03000
C435        C  0.82266988  0.07382024  0.30931149    -0.13200
C436        C  0.83569193  0.10378350  0.32482518     0.00500
C437        C  0.85502624  0.10128621  0.35564747    -0.11700
C438        C  0.86094147  0.06835115  0.37045082     0.03000
C439        C  0.84609273  0.03905724  0.35511841    -0.11100
H440        H  0.80640293  0.07566786  0.28647875     0.08600
H441        H  0.86392810  0.12457396  0.36856013     0.06100
H442        H  0.84854756  0.01380934  0.36701004     0.05900
C443        C  0.63078601  0.99930929  0.13822407     0.03000
C444        C  0.64147420  0.02792841  0.15789424    -0.13200
C445        C  0.62434452  0.05938381  0.15550528     0.00500
C446        C  0.59442923  0.06216156  0.13569883    -0.11700
C447        C  0.58198444  0.03381898  0.11679493     0.03000
C448        C  0.60122386  0.00272069  0.11673392    -0.11100
H449        H  0.66346712  0.02589411  0.17517556     0.08600
H450        H  0.58084490  0.08666522  0.13522804     0.06100
H451        H  0.59312628  0.98171560  0.10019672     0.05900
O452        O  0.64968336  0.76401754  0.17705829    -0.88300
C453        C  0.83692640  0.75544657  0.22492985     1.11700
O454        O  0.69970641  0.80532293  0.21857556    -1.36100
O455        O  0.76347031  0.69993265  0.25512697    -0.89800
O456        O  0.61945022  0.79877578  0.21092825    -0.90500
O457        O  0.65415000  0.79794071  0.29282903    -0.79300
O458        O  0.70893243  0.73424034  0.21357572    -1.01400
C459        C  0.74218358  0.77255796  0.34016980     1.21800
O460        O  0.72706262  0.83765047  0.27574528    -1.36300
Mn461      Mn  0.75115309  0.82875712  0.22553878     1.82100
O462        O  0.71501228  0.76608041  0.32286924    -0.78400
O463        O  0.79337825  0.72563361  0.29783128    -0.87800
C464        C  0.81680924  0.84546487  0.26637409     1.12800
C465        C  0.78032988  0.69915815  0.28322656     1.07600
O466        O  0.73931257  0.87738290  0.19884067    -0.79300
O467        O  0.75693752  0.77861189  0.25119680    -1.33000
O468        O  0.68995242  0.87450027  0.22164182    -0.98500
C469        C  0.70043559  0.87663593  0.35112471     1.06300
Mn470      Mn  0.79643387  0.77874631  0.28949943     1.48600
O471        O  0.68490795  0.88641745  0.32426647    -0.87700
Mn472      Mn  0.65601995  0.83740328  0.21483125     1.49600
O473        O  0.69838423  0.80542483  0.13844034    -0.91600
C474        C  0.68801229  0.72044829  0.23253583     1.19500
C475        C  0.67540181  0.82862075  0.13622723     1.11500
Mn476      Mn  0.70499148  0.78595243  0.27130848     1.81000
O477        O  0.79980554  0.82845035  0.28645660    -0.96800
Mn478      Mn  0.70157476  0.76903011  0.17818436     1.49300
C479        C  0.62149478  0.77429212  0.18913144     1.08000
Mn480      Mn  0.76258653  0.84252851  0.31656683     1.49900
C481        C  0.75675560  0.91910101  0.28861954     1.11000
O482        O  0.65329953  0.84457874  0.26545805    -1.02600
O483        O  0.83506291  0.77199387  0.25308579    -0.92200
C484        C  0.63888268  0.82618266  0.28635922     1.22200
O485        O  0.76348085  0.79167004  0.32653174    -1.02900
O486        O  0.81168380  0.73937431  0.21160436    -0.90300
O487        O  0.77012518  0.89508070  0.30653539    -0.90000
O488        O  0.65778408  0.83883831  0.16166931    -0.90000
Mn489      Mn  0.75914047  0.73652388  0.21653336     1.47900
O490        O  0.80252575  0.85038765  0.23715491    -0.78400
C491        C  0.70853480  0.88853306  0.20015550     1.15300
O492        O  0.68234493  0.73546352  0.26111259    -0.77200
O493        O  0.77508086  0.81612903  0.17594999    -0.76800
Mn494      Mn  0.69083193  0.87864509  0.27231240     1.51100
O495        O  0.72431467  0.85446272  0.35142655    -0.89100
O496        O  0.75099059  0.76800726  0.17850055    -0.96700
O497        O  0.72876751  0.91624062  0.27192249    -0.91700
C498        C  0.76993546  0.78688777  0.16222306     1.13100
C499        C  0.62766974  0.91166764  0.02570182     0.03000
C500        C  0.64183569  0.90242219  0.99399592    -0.13200
C501        C  0.62904737  0.91635826  0.96345224     0.00500
C502        C  0.60424434  0.94224680  0.96475748    -0.11700
C503        C  0.58712038  0.94870568  0.99594990     0.03000
C504        C  0.60024263  0.93517563  0.02691460    -0.11100
H505        H  0.66049409  0.88150284  0.99291376     0.08600
H506        H  0.59503021  0.95345225  0.94088651     0.06100
H507        H  0.58776565  0.94088286  0.05126222     0.05900
C508        C  0.81635222  0.72693840  0.96550048     0.03000
C509        C  0.83809816  0.69732660  0.96565327    -0.13200
C510        C  0.84943183  0.68208721  0.99711966     0.00500
C511        C  0.83817644  0.69753069  0.02853174    -0.11700
C512        C  0.81712266  0.72770568  0.02899179     0.03000
C513        C  0.80699927  0.74218228  0.99724468    -0.11100
H514        H  0.84532866  0.68564315  0.94124476     0.08600
H515        H  0.84570779  0.68576194  0.05265701     0.06100
H516        H  0.79023258  0.76461864  0.99724113     0.05900
C517        C  0.83767684  0.07810331  0.65705538     0.03000
C518        C  0.82062631  0.04871092  0.66884486    -0.13200
C519        C  0.82517606  0.01708851  0.65233388     0.00500
C520        C  0.84672796  0.01454922  0.62342289    -0.11700
C521        C  0.86388213  0.04418243  0.61158683     0.03000
C522        C  0.86222417  0.07489805  0.63092935    -0.11100
H523        H  0.80099998  0.05095914  0.68874253     0.08600
H524        H  0.84808425  0.99048844  0.60902550     0.06100
H525        H  0.87661217  0.09748440  0.62293775     0.05900
C526        C  0.64977326  0.07983546  0.84825760     0.03000
C527        C  0.66455172  0.04720521  0.84106040    -0.13200
C528        C  0.64873307  0.01606499  0.85181212     0.00500
C529        C  0.61672455  0.01832247  0.86998165    -0.11700
C530        C  0.60097463  0.05066136  0.87787508     0.03000
C531        C  0.61835009  0.08120287  0.86709259    -0.11100
H532        H  0.68723931  0.04612790  0.82479891     0.08600
H533        H  0.60365444  0.99463735  0.87726189     0.06100
H534        H  0.60672304  0.10619210  0.87205927     0.05900
C535        C  0.98051406  0.88641272  0.64974254     0.03000
C536        C  0.98229147  0.90781618  0.62062184    -0.13200
C537        C  0.95294292  0.92484811  0.60787206     0.00500
C538        C  0.92166385  0.92221012  0.62705122    -0.11700
C539        C  0.91910395  0.90020251  0.65669630     0.03000
C540        C  0.94917099  0.88272947  0.66739343    -0.11100
H541        H  0.00667330  0.90995302  0.60704403     0.08600
H542        H  0.89990854  0.93742520  0.61887414     0.06100
H543        H  0.94805271  0.86503389  0.68905036     0.05900
C544        C  0.95650405  0.72370429  0.85284095     0.03000
C545        C  0.98527249  0.74538267  0.85208773    -0.13200
C546        C  0.01764589  0.73284282  0.86190487     0.00500
C547        C  0.02010479  0.70036455  0.87886045    -0.11700
C548        C  0.99011237  0.68057877  0.88493720     0.03000
C549        C  0.95912112  0.69176093  0.86992656    -0.11100
H550        H  0.98346418  0.77049197  0.84009975     0.08600
H551        H  0.04512930  0.68998878  0.88559123     0.06100
H552        H  0.93695155  0.67467460  0.87052590     0.05900
N553        N  0.95429396  0.97694952  0.44428442    -0.06300
N554        N  0.94489242  0.96443259  0.41350359    -0.58400
N555        N  0.97911086  0.96839105  0.53049412    -0.06000
N556        N  0.98714817  0.95215801  0.55949254    -0.60500
N557        N  0.94539621  0.97028690  0.52708983    -0.05500
N558        N  0.92990155  0.95553595  0.55400839    -0.58400
N559        N  0.98803862  0.97481459  0.44797068    -0.05200
N560        N  0.00205117  0.96109728  0.41961671    -0.60900
C561        C  0.97494043  0.95447991  0.39799538     0.95900
C562        C  0.95630284  0.94412653  0.57415375     0.95700
N563        N  0.03930213  0.05745218  0.54397644    -0.06500
N564        N  0.05098105  0.06691407  0.57457548    -0.59000
N565        N  0.04575515  0.02968823  0.46107228    -0.04600
N566        N  0.05936746  0.01937067  0.43155427    -0.60200
N567        N  0.04734610  0.06366476  0.46374491    -0.06500
N568        N  0.06198939  0.07694594  0.43591507    -0.59200
N569        N  0.03752658  0.02343005  0.54173901    -0.04200
N570        N  0.04808419  0.00928235  0.57116744    -0.60300
Mn571      Mn  0.01379938  0.99786370  0.49545563     1.18400
C572        C  0.05638814  0.03685541  0.59143380     0.98000
C573        C  0.06938712  0.04901893  0.41613805     0.98700
N574        N  0.89548694  0.03188985  0.52693812    -0.06500
N575        N  0.88271773  0.01812406  0.55543288    -0.62800
N576        N  0.90352109  0.07378031  0.45101412    -0.05300
N577        N  0.88989108  0.08983335  0.42418102    -0.63500
N578        N  0.90165756  0.03996656  0.44703800    -0.06000
N579        N  0.88656257  0.03243462  0.41737422    -0.63100
N580        N  0.89789371  0.06577360  0.53033964    -0.04900
N581        N  0.88700625  0.07550013  0.56103882    -0.63800
Mn582      Mn  0.92288566  0.00369970  0.48574478     1.10700
C583        C  0.87779995  0.04566285  0.57642284     0.99200
C584        C  0.87943986  0.06374914  0.40340540     0.99300
N585        N  0.99598698  0.12476326  0.46249983    -0.06000
N586        N  0.01099861  0.13860842  0.43494284    -0.61400
N587        N  0.95402551  0.12190411  0.54173458    -0.05300
N588        N  0.94006314  0.13724653  0.56920049    -0.58100
N589        N  0.98773510  0.12008623  0.54506873    -0.06700
N590        N  0.99730945  0.13431110  0.57497568    -0.61000
N591        N  0.96223060  0.12702329  0.45985746    -0.05600
N592        N  0.95362179  0.14246319  0.43062419    -0.58100
Mn593      Mn  0.01892833  0.09242427  0.50410302     1.20200
Mn594      Mn  0.92837866  0.09810105  0.49573417     1.10100
Cl595      Cl  0.97104576  0.04793431  0.49516937    -0.86100
C596        C  0.98421098  0.14965329  0.41515639     0.96200
C597        C  0.96729143  0.14497443  0.59010134     0.96000
N598        N  0.94679920  0.51498302  0.06998789    -0.06300
N599        N  0.93061910  0.48881408  0.08512090    -0.58400
N600        N  0.99012284  0.59090876  0.07723345    -0.06000
N601        N  0.00474107  0.61813477  0.09201528    -0.60500
N602        N  0.95641748  0.59538908  0.07439447    -0.05500
N603        N  0.94767605  0.62567097  0.08762426    -0.58400
N604        N  0.98054531  0.51102309  0.07234992    -0.05200
N605        N  0.98780443  0.48237054  0.08925662    -0.60900
C606        C  0.95657421  0.46859041  0.09699279     0.95900
C607        C  0.97804195  0.63953293  0.09844458     0.95700
N608        N  0.05554674  0.59185919  0.99488112    -0.06500
N609        N  0.07453459  0.61915544  0.98700777    -0.59000
N610        N  0.04480921  0.50649434  0.02074952    -0.04600
N611        N  0.05746502  0.47596985  0.03057964    -0.60200
N612        N  0.04813234  0.51009724  0.98709833    -0.06500
N613        N  0.06268814  0.48201197  0.97352815    -0.59200
N614        N  0.05294969  0.58884180  0.02861506    -0.04200
N615        N  0.06986605  0.61447163  0.04433791    -0.60300
Mn616      Mn  0.01784918  0.54876020  0.05090697     1.18400
C617        C  0.08354191  0.63317851  0.01799474     0.98000
C618        C  0.06859400  0.46058554  0.00076285     0.98700
N619        N  0.89993113  0.60520207  0.01447795    -0.06500
N620        N  0.88087561  0.63141165  0.02610908    -0.62800
N621        N  0.89767446  0.52493769  0.97497184    -0.05300
N622        N  0.88258076  0.49778815  0.95991744    -0.63500
N623        N  0.89451643  0.52313668  0.00875568    -0.06000
N624        N  0.87724047  0.49480925  0.01724738    -0.63100
N625        N  0.90280412  0.60700098  0.98063506    -0.04900
N626        N  0.88575538  0.63437787  0.96872983    -0.63800
Mn627      Mn  0.92344522  0.55994366  0.04301712     1.10700
C628        C  0.87204948  0.64974116  0.99733856     0.99200
C629        C  0.86964009  0.47907369  0.98662699     0.99300
N630        N  0.99494930  0.52145134  0.92894146    -0.06000
N631        N  0.00492734  0.49021363  0.91955423    -0.61400
N632        N  0.96790414  0.60416849  0.93051257    -0.05300
N633        N  0.95895208  0.63210711  0.91338323    -0.58100
N634        N  0.00185589  0.60214306  0.93296109    -0.06700
N635        N  0.01642255  0.62911621  0.91728918    -0.61000
N636        N  0.96107308  0.52410912  0.92681897    -0.05600
N637        N  0.94755464  0.49465630  0.91609130    -0.58100
Mn638      Mn  0.02621773  0.55686361  0.95993168     1.20200
Mn639      Mn  0.93181279  0.56544574  0.95208825     1.10100
Cl640      Cl  0.97483750  0.55810990  0.00159204    -0.86100
C641        C  0.97512478  0.47384817  0.91188529     0.96200
C642        C  0.98913119  0.64759104  0.90506202     0.96000
N643        N  0.44419307  0.13310385  0.98011381    -0.06300
N644        N  0.42409405  0.15731123  0.96747848    -0.58400
N645        N  0.51898723  0.12017682  0.02128894    -0.06000
N646        N  0.54746626  0.13149403  0.03682200    -0.60500
N647        N  0.52220224  0.12229765  0.98738501    -0.05500
N648        N  0.55265320  0.13519093  0.97940341    -0.58400
N649        N  0.44055543  0.13093319  0.01387989    -0.05200
N650        N  0.41805951  0.15387654  0.02494989    -0.60900
C651        C  0.40793276  0.16980600  0.99565437     0.95900
C652        C  0.56823368  0.14087930  0.01029590     0.95700
N653        N  0.50255395  0.02785169  0.07086940    -0.06500
N654        N  0.52905092  0.01177670  0.08540893    -0.59000
N655        N  0.42500006  0.07108892  0.06800395    -0.04600
N656        N  0.39856492  0.08429871  0.08562259    -0.60200
N657        N  0.42147633  0.03730296  0.06522123    -0.06500
N658        N  0.39275840  0.02699949  0.08098730    -0.59200
N659        N  0.50596527  0.06146440  0.07398983    -0.04200
N660        N  0.53467224  0.06908319  0.09079592    -0.60300
Mn661      Mn  0.47231814  0.09685230  0.04531408     1.18400
C662        C  0.54888605  0.03790898  0.09784492     0.98000
C663        C  0.37833037  0.05653659  0.09368332     0.98700
N664        N  0.52157646  0.07256716  0.92216230    -0.06500
N665        N  0.55134117  0.08243790  0.90808478    -0.62800
N666        N  0.43582128  0.04859445  0.91522436    -0.05300
N667        N  0.40633121  0.04056652  0.90007544    -0.63500
N668        N  0.43903726  0.08238551  0.91789472    -0.06000
N669        N  0.41134349  0.09792433  0.90450053    -0.63100
N670        N  0.51769189  0.03893859  0.91916345    -0.04900
N671        N  0.54493666  0.02530757  0.90311534    -0.63800
Mn672      Mn  0.48200039  0.10359281  0.95093992     1.10700
C673        C  0.56601788  0.05272299  0.89610403     0.99200
C674        C  0.39105408  0.07132946  0.89321050     0.99300
N675        N  0.42332245  0.98545763  0.00156790    -0.06000
N676        N  0.39596904  0.96740444  0.01046697    -0.61400
N677        N  0.50568080  0.98204530  0.97446848    -0.05300
N678        N  0.53649134  0.97175291  0.96463813    -0.58100
N679        N  0.50256523  0.97946673  0.00831121    -0.06700
N680        N  0.53129637  0.96720510  0.02193407    -0.61000
N681        N  0.42588520  0.98730240  0.96765212    -0.05600
N682        N  0.39985772  0.97039355  0.95288087    -0.58100
Mn683      Mn  0.46194635  0.00639282  0.03718554     1.20200
Mn684      Mn  0.47104952  0.01317350  0.94294623     1.10100
Cl685      Cl  0.47143324  0.05511168  0.99404380    -0.86100
C686        C  0.38143249  0.95819715  0.98008856     0.96200
C687        C  0.55217888  0.96282043  0.99441414     0.96000
O688        O  0.75438460  0.68850568  0.74769531    -0.88300
C689        C  0.65845619  0.82267753  0.85520953     1.11700
O690        O  0.74590937  0.76707272  0.74941789    -1.36100
O691        O  0.63114948  0.74914125  0.81344917    -0.89800
O692        O  0.78917423  0.71522379  0.71016164    -0.90500
O693        O  0.70907156  0.74872928  0.67423089    -0.79300
O694        O  0.69705150  0.72217428  0.78495977    -1.01400
C695        C  0.63031798  0.81081152  0.70571864     1.21800
O696        O  0.71572719  0.82442715  0.71937447    -1.36300
Mn697      Mn  0.73733379  0.81852800  0.77111541     1.82100
O698        O  0.64455646  0.78172747  0.70036051    -0.78400
O699        O  0.60795323  0.78846812  0.77824400    -0.87800
C700        C  0.69448225  0.88232684  0.78923805     1.12800
C701        C  0.60568916  0.76152397  0.79669042     1.07600
O702        O  0.78765215  0.84328102  0.76100418    -0.79300
O703        O  0.68654135  0.79396370  0.77649398    -1.33000
O704        O  0.78747630  0.81831624  0.71318146    -0.98500
C705        C  0.69170961  0.85425292  0.63855866     1.06300
Mn706      Mn  0.64431464  0.82799015  0.77597580     1.48600
O707        O  0.71493265  0.83128854  0.64023978    -0.87700
Mn708      Mn  0.78877190  0.76772075  0.71604671     1.49600
O709        O  0.79978319  0.72945059  0.79327770    -0.91600
C710        C  0.67903388  0.70576927  0.76501773     1.19500
C711        C  0.82631930  0.74461496  0.78186795     1.11500
Mn712      Mn  0.69503424  0.77162715  0.72484659     1.81000
O713        O  0.67563619  0.86691596  0.76911442    -0.96800
Mn714      Mn  0.74706657  0.72611043  0.78564808     1.49300
C715        C  0.77419735  0.68866956  0.72161607     1.08000
Mn716      Mn  0.67935702  0.86518015  0.71874159     1.49900
C717        C  0.74138788  0.90672253  0.69712875     1.11000
O718        O  0.75663214  0.77564188  0.67597745    -1.02600
O719        O  0.64338791  0.83383953  0.82854198    -0.92200
C720        C  0.73837280  0.75453044  0.66044565     1.22200
O721        O  0.64541066  0.82928271  0.72603608    -1.02900
O722        O  0.67720385  0.79583792  0.85574266    -0.90300
O723        O  0.71526846  0.90493494  0.71664179    -0.90000
O724        O  0.82539888  0.76411033  0.75543070    -0.90000
Mn725      Mn  0.68470189  0.75803734  0.81790103     1.47900
O726        O  0.72402349  0.86879874  0.79343957    -0.78400
C727        C  0.80146255  0.83943900  0.73154768     1.15300
O728        O  0.67409019  0.71994146  0.73582769    -0.77200
O729        O  0.75865001  0.80825828  0.82157603    -0.76800
Mn730      Mn  0.75159366  0.82747040  0.67897409     1.51100
O731        O  0.67684252  0.86662529  0.66502877    -0.89100
O732        O  0.73532229  0.75872561  0.82272633    -0.96700
O733        O  0.75436538  0.88102284  0.68159663    -0.91700
C734        C  0.75383351  0.77997735  0.83723093     1.13100
C735        C  0.34994553  0.87650884  0.55113728     0.03000
C736        C  0.36983070  0.90741050  0.55096711    -0.13200
C737        C  0.37748365  0.92408774  0.51948760     0.00500
C738        C  0.36693553  0.90828425  0.48848876    -0.11700
C739        C  0.34529709  0.87915587  0.48840769     0.03000
C740        C  0.33683002  0.86361259  0.51980835    -0.11100
H741        H  0.37729373  0.91939440  0.57523119     0.08600
H742        H  0.37240836  0.92073425  0.46401788     0.06100
H743        H  0.31716391  0.84374435  0.52047583     0.05900
C744        C  0.13260084  0.69958953  0.51042926     0.03000
C745        C  0.10381178  0.67753036  0.50994033    -0.13200
C746        C  0.08792536  0.66778414  0.47864054     0.00500
C747        C  0.10577537  0.67561236  0.44719014    -0.11700
C748        C  0.13843691  0.69317067  0.44807505     0.03000
C749        C  0.15007348  0.70622917  0.47970694    -0.11100
H750        H  0.09174336  0.67101495  0.53428236     0.08600
H751        H  0.09406093  0.66930532  0.42255411     0.06100
H752        H  0.17172161  0.72408108  0.47984408     0.05900
C753        C  0.81297108  0.39083321  0.48620482     0.03000
C754        C  0.79470042  0.38882283  0.51716858    -0.13200
C755        C  0.80604581  0.40611632  0.54696825     0.00500
C756        C  0.83771486  0.42503651  0.54545060    -0.11700
C757        C  0.85744957  0.42609279  0.51454537     0.03000
C758        C  0.84489201  0.40808966  0.48549824    -0.11100
H759        H  0.77179697  0.37291806  0.51807467     0.08600
H760        H  0.84725875  0.43806383  0.56840695     0.06100
H761        H  0.86004871  0.40739689  0.46201677     0.05900
C762        C  0.61218830  0.23880967  0.52028969     0.03000
C763        C  0.59183170  0.20871159  0.52117794    -0.13200
C764        C  0.57944487  0.19330604  0.49057241     0.00500
C765        C  0.58668207  0.20985709  0.45890447    -0.11700
C766        C  0.60584582  0.24124498  0.45802651     0.03000
C767        C  0.61839322  0.25527008  0.48891166    -0.11100
H768        H  0.58855381  0.19558828  0.54568361     0.08600
H769        H  0.57977918  0.19716128  0.43492136     0.06100
H770        H  0.63653239  0.27667262  0.48799933     0.05900
C771        C  0.68068825  0.96102547  0.46924599     0.03000
C772        C  0.69300250  0.94552663  0.49904633    -0.13200
C773        C  0.67984203  0.95439215  0.53127450     0.00500
C774        C  0.65335811  0.97948041  0.53326398    -0.11700
C775        C  0.63864011  0.99279949  0.50284595     0.03000
C776        C  0.65394337  0.98510300  0.47106130    -0.11100
H777        H  0.70935532  0.92294180  0.49653474     0.08600
H778        H  0.64131492  0.98497042  0.55795306     0.06100
H779        H  0.64246080  0.99436401  0.44724266     0.05900
C780        C  0.79391237  0.69684983  0.52910695     0.03000
C781        C  0.78010455  0.70966204  0.49795742    -0.13200
C782        C  0.79537531  0.70255804  0.46554358     0.00500
C783        C  0.82622803  0.68277662  0.46469376    -0.11700
C784        C  0.84196318  0.67047973  0.49551698     0.03000
C785        C  0.82527429  0.67774328  0.52750821    -0.11100
H786        H  0.75792003  0.72662348  0.49895961     0.08600
H787        H  0.83871987  0.67818579  0.44008286     0.06100
H788        H  0.83698916  0.66905177  0.55140082     0.05900
C789        C  0.43154575  0.40520276  0.84766228     0.03000
C790        C  0.43532224  0.42912315  0.87467667    -0.13200
C791        C  0.46782324  0.43393259  0.89023912     0.00500
C792        C  0.49695075  0.41796721  0.87600431    -0.11700
C793        C  0.49293828  0.39501820  0.84837260     0.03000
C794        C  0.46060038  0.38886786  0.83427958    -0.11100
H795        H  0.41290394  0.44230918  0.88481867     0.08600
H796        H  0.52224440  0.42172930  0.88747548     0.06100
H797        H  0.45783967  0.36930028  0.81423551     0.05900
C798        C  0.49900629  0.23508421  0.65129516     0.03000
C799        C  0.49906096  0.20426704  0.63134254    -0.13200
C800        C  0.46829534  0.18714920  0.62140430     0.00500
C801        C  0.43640122  0.20300578  0.63061679    -0.11700
C802        C  0.43507378  0.23461327  0.65007292     0.03000
C803        C  0.46682488  0.24947278  0.66098094    -0.11100
H804        H  0.52367781  0.19273926  0.62470832     0.08600
H805        H  0.41246764  0.19041799  0.62323794     0.06100
H806        H  0.46652398  0.27089667  0.67896619     0.05900
C807        C  0.45192737  0.87803982  0.36152173     0.03000
C808        C  0.45215670  0.90996619  0.38002096    -0.13200
C809        C  0.48349034  0.92767944  0.38847212     0.00500
C810        C  0.51500480  0.91213888  0.37730383    -0.11700
C811        C  0.51525199  0.87995846  0.35894667     0.03000
C812        C  0.48361747  0.86373496  0.35132920    -0.11100
H813        H  0.42763023  0.92158281  0.38678310     0.08600
H814        H  0.53926003  0.92527628  0.38223246     0.06100
H815        H  0.48363006  0.84068247  0.33527383     0.05900
C816        C  0.44821471  0.67084195  0.17461730     0.03000
C817        C  0.44645248  0.65158541  0.14341879    -0.13200
C818        C  0.47270895  0.65549729  0.11867879     0.00500
C819        C  0.50152665  0.67528321  0.12660213    -0.11700
C820        C  0.50510382  0.69032498  0.15907026     0.03000
C821        C  0.48002289  0.68513689  0.18410764    -0.11100
H822        H  0.42228729  0.63947217  0.13588945     0.08600
H823        H  0.52030823  0.68090844  0.10661075     0.06100
H824        H  0.48305892  0.69845265  0.20836053     0.05900
C825        C  0.80650115  0.50338529  0.34183159     0.03000
C826        C  0.79503946  0.53459591  0.32809966    -0.13200
C827        C  0.80716314  0.56585813  0.34115611     0.00500
C828        C  0.83245142  0.56585390  0.36710107    -0.11700
C829        C  0.84759498  0.53502446  0.37831619     0.03000
C830        C  0.83370711  0.50343806  0.36632101    -0.11100
H831        H  0.77750196  0.53418315  0.30635244     0.08600
H832        H  0.84206983  0.59043251  0.37671041     0.06100
H833        H  0.84433790  0.47940170  0.37538416     0.05900
C834        C  0.62482239  0.60264934  0.16110575     0.03000
C835        C  0.60615766  0.60307878  0.12918078    -0.13200
C836        C  0.59832687  0.57148962  0.11155619     0.00500
C837        C  0.61059183  0.54041348  0.12600284    -0.11700
C838        C  0.62839595  0.53996833  0.15751385     0.03000
C839        C  0.63439629  0.57080538  0.17528634    -0.11100
H840        H  0.59877237  0.62752366  0.11784697     0.08600
H841        H  0.60675991  0.51608321  0.11250511     0.06100
H842        H  0.64893140  0.57019592  0.19929120     0.05900
C843        C  0.47889761  0.69096188  0.82772213     0.03000
C844        C  0.44681979  0.69763873  0.81288776    -0.13200
C845        C  0.41642984  0.68536421  0.82812448     0.00500
C846        C  0.41848579  0.66496081  0.85831222    -0.11700
C847        C  0.45085343  0.65874904  0.87400545     0.03000
C848        C  0.48085754  0.67167175  0.85818434    -0.11100
H849        H  0.44540894  0.71408104  0.79024740     0.08600
H850        H  0.39512846  0.65508639  0.87007170     0.06100
H851        H  0.50591465  0.66788848  0.87012141     0.05900
C852        C  0.45360078  0.89655265  0.64256266     0.03000
C853        C  0.48247755  0.87676569  0.65152830    -0.13200
C854        C  0.51584470  0.88682061  0.64188219     0.00500
C855        C  0.52042500  0.91920364  0.62446338    -0.11700
C856        C  0.49105453  0.93897355  0.61444835     0.03000
C857        C  0.45811682  0.92468565  0.62062625    -0.11100
H858        H  0.47939021  0.85465928  0.66844905     0.08600
H859        H  0.54615408  0.92940994  0.62041338     0.06100
H860        H  0.43530188  0.93692172  0.61036347     0.05900
C861        C  0.80164618  0.57841065  0.62900290     0.03000
C862        C  0.78900472  0.54691808  0.64058867    -0.13200
C863        C  0.80584319  0.51619969  0.63282462     0.00500
C864        C  0.83685516  0.51712087  0.61387334    -0.11700
C865        C  0.85028185  0.54899024  0.60238489     0.03000
C866        C  0.83117984  0.57923548  0.60805640    -0.11100
H867        H  0.76906135  0.54685693  0.66026031     0.08600
H868        H  0.85180864  0.49362246  0.61091546     0.06100
H869        H  0.84184686  0.60410520  0.60071469     0.05900
C870        C  0.62295279  0.57722633  0.82673944     0.03000
C871        C  0.62996184  0.54416574  0.81283679    -0.13200
C872        C  0.61604697  0.51354436  0.82739502     0.00500
C873        C  0.59350881  0.51733414  0.85622442    -0.11700
C874        C  0.58802147  0.54967347  0.87278582     0.03000
C875        C  0.60237725  0.57954225  0.85709142    -0.11100
H876        H  0.64721068  0.54239345  0.79088119     0.08600
H877        H  0.57976488  0.49523121  0.86590503     0.06100
H878        H  0.59780273  0.60466586  0.86865863     0.05900
C879        C  0.32580995  0.50079910  0.83643310     0.03000
C880        C  0.34466401  0.50068742  0.86818177    -0.13200
C881        C  0.35136506  0.53219148  0.88618213     0.00500
C882        C  0.33922267  0.56321251  0.87168672    -0.11700
C883        C  0.31715268  0.56324480  0.84300075     0.03000
C884        C  0.31160379  0.53218771  0.82491062    -0.11100
H885        H  0.35309577  0.47634883  0.87908750     0.08600
H886        H  0.34461325  0.58767049  0.88434992     0.06100
H887        H  0.29424965  0.53197106  0.80287833     0.05900
C888        C  0.14336066  0.59982522  0.63243513     0.03000
C889        C  0.15513343  0.56786264  0.64485332    -0.13200
C890        C  0.13892388  0.53701425  0.63517687     0.00500
C891        C  0.11350018  0.53791094  0.60959430    -0.11700
C892        C  0.09788128  0.56929380  0.60026626     0.03000
C893        C  0.11351263  0.60069547  0.61115891    -0.11100
H894        H  0.17519046  0.56742437  0.66446072     0.08600
H895        H  0.10313569  0.51366769  0.60015346     0.06100
H896        H  0.10179114  0.62527394  0.60471478     0.05900
N897        N  0.01468393  0.47773291  0.48167906    -0.06300
N898        N  0.04229939  0.46188545  0.46876978    -0.58400
N899        N  0.93578158  0.47530656  0.52226595    -0.06000
N900        N  0.90956975  0.45934959  0.53767227    -0.60500
N901        N  0.93311598  0.47231440  0.48848916    -0.05500
N902        N  0.90530788  0.45406006  0.48029332    -0.58400
N903        N  0.01764522  0.48103566  0.51537924    -0.05200
N904        N  0.04724512  0.46733363  0.52601840    -0.60900
C905        C  0.06267028  0.45540221  0.49667848     0.95900
C906        C  0.89072888  0.44592155  0.51116651     0.95700
N907        N  0.93226554  0.57213861  0.56857992    -0.06500
N908        N  0.90135658  0.58168728  0.57946701    -0.59000
N909        N  0.01625020  0.54520101  0.56571012    -0.04600
N910        N  0.04666163  0.53660784  0.57832748    -0.60200
N911        N  0.01368884  0.57911982  0.56360525    -0.06500
N912        N  0.04252301  0.59407787  0.57495101    -0.59200
N913        N  0.93564206  0.53830425  0.57144798    -0.04200
N914        N  0.90722774  0.52447883  0.58433220    -0.60300
Mn915      Mn  0.97669464  0.50926014  0.54506069     1.02600
C916        C  0.88604776  0.55172267  0.58920932     0.98000
C917        C  0.06299164  0.56712303  0.58396236     0.98700
N918        N  0.92507428  0.52566384  0.42725427    -0.06500
N919        N  0.89836489  0.51061165  0.41171658    -0.62800
N920        N  0.00286234  0.56612256  0.42152904    -0.05300
N921        N  0.03263071  0.57971630  0.41197340    -0.63500
N922        N  0.00558348  0.53223506  0.42425688    -0.06000
N923        N  0.03722769  0.52243091  0.41660088    -0.63100
N924        N  0.92261475  0.55962133  0.42503953    -0.04900
N925        N  0.89431757  0.56814678  0.40815973    -0.63800
Mn926      Mn  0.96929947  0.50090915  0.45420275     1.10700
C927        C  0.87924607  0.53752967  0.40005594     0.99200
C928        C  0.05379925  0.55226962  0.40940777     0.99300
N929        N  0.00600668  0.63139491  0.50323113    -0.06000
N930        N  0.03592785  0.64581391  0.51166497    -0.61400
N931        N  0.92075846  0.62435441  0.47600203    -0.05300
N932        N  0.89168237  0.63907580  0.46510502    -0.58100
N933        N  0.92339952  0.62722621  0.50980011    -0.06700
N934        N  0.89606509  0.64374894  0.52246887    -0.61000
N935        N  0.00346822  0.62879358  0.46943441    -0.05600
N936        N  0.03173157  0.64150443  0.45437859    -0.58100
Mn937      Mn  0.96874689  0.60364718  0.53756531     1.20200
Mn938      Mn  0.96181110  0.59554528  0.44668986     1.10100
Cl939      Cl  0.96875735  0.55229825  0.49591136    -0.86100
C940        C  0.05199789  0.65221820  0.48107030     0.96200
C941        C  0.87623006  0.65122569  0.49436522     0.96000
N942        N  0.49762180  0.48604345  0.04703758    -0.06300
N943        N  0.51269703  0.47467364  0.07565807    -0.58400
N944        N  0.45676688  0.47506793  0.97058244    -0.06000
N945        N  0.44314433  0.45898384  0.94375566    -0.60500
N946        N  0.49051854  0.47775417  0.96697808    -0.05500
N947        N  0.50040479  0.46334532  0.93764014    -0.58400
N948        N  0.46372893  0.48398303  0.04997047    -0.05200
N949        N  0.45524965  0.47156166  0.08040028    -0.60900
C950        C  0.48579641  0.46601087  0.09633286     0.95900
C951        C  0.47053521  0.45193962  0.92348221     0.95700
N952        N  0.39090044  0.55744170  0.96579627    -0.06500
N953        N  0.37534121  0.56551043  0.93655911    -0.59000
N954        N  0.39853830  0.53277894  0.05120188    -0.04600
N955        N  0.38444096  0.52257682  0.08085630    -0.60200
N956        N  0.39529499  0.56641782  0.04782879    -0.06500
N957        N  0.37913562  0.57970632  0.07523631    -0.59200
N958        N  0.39392854  0.52371838  0.96848030    -0.04200
N959        N  0.38043658  0.50818553  0.94075048    -0.60300
Mn960      Mn  0.42744254  0.50260736  0.01044715     1.18400
C961        C  0.36869702  0.53473181  0.92096465     0.98000
C962        C  0.37224978  0.55209013  0.09596015     0.98700
N963        N  0.54459850  0.53720362  0.95453546    -0.06500
N964        N  0.56091893  0.52400930  0.92728608    -0.62800
N965        N  0.54799922  0.57968035  0.03343739    -0.05300
N966        N  0.56454966  0.59528358  0.05945137    -0.63500
N967        N  0.55102126  0.54594254  0.03604003    -0.06000
N968        N  0.56960017  0.53794774  0.06355016    -0.63100
N969        N  0.54175929  0.57096520  0.95133476    -0.04900
N970        N  0.55633415  0.58128522  0.92193369    -0.63800
Mn971      Mn  0.52199588  0.51057553  0.00112770     1.10700
C972        C  0.56826297  0.55170145  0.90683469     0.99200
C973        C  0.57822266  0.56880116  0.07811513     0.99300
N974        N  0.44949469  0.62413253  0.03643890    -0.06000
N975        N  0.43964229  0.63396181  0.06762014    -0.61400
N976        N  0.47688942  0.62077033  0.95309113    -0.05300
N977        N  0.48501454  0.63515158  0.92332800    -0.58100
N978        N  0.44306039  0.61811063  0.95608536    -0.06700
N979        N  0.42768188  0.63070619  0.92819021    -0.61000
N980        N  0.48326232  0.62731163  0.03300091    -0.05600
N981        N  0.49674968  0.63964317  0.06172099    -0.58100
Mn982      Mn  0.41862416  0.59265017  0.00142313     1.20200
Mn983      Mn  0.51322766  0.60110898  0.99233346     1.10100
Cl984      Cl  0.47042789  0.55171834  0.00127153    -0.86100
C985        C  0.46939512  0.64356310  0.08294649     0.96200
C986        C  0.45422426  0.64122404  0.90794568     0.96000
N987        N  0.49178709  0.10813808  0.57688677    -0.06300
N988        N  0.50074404  0.13809142  0.59134211    -0.58400
N989        N  0.47010995  0.02257980  0.58229195    -0.06000
N990        N  0.46128933  0.99251009  0.59534421    -0.60500
N991        N  0.50391909  0.02495215  0.57952784    -0.05500
N992        N  0.51853829  0.99570198  0.59079429    -0.58400
N993        N  0.45818956  0.10386129  0.57886428    -0.05200
N994        N  0.44373600  0.13090167  0.59474061    -0.60900
C995        C  0.47063174  0.15239648  0.60256748     0.95900
C996        C  0.49125582  0.97557506  0.60076429     0.95700
N997        N  0.41013284  0.00663642  0.49605243    -0.06500
N998        N  0.39851089  0.97578766  0.48716393    -0.59000
N999        N  0.40173012  0.09020533  0.52301052    -0.04600
N1000       N  0.38869279  0.12014781  0.53290198    -0.60200
N1001       N  0.40029125  0.08703151  0.48908619    -0.06500
N1002       N  0.38643173  0.11502100  0.47538618    -0.59200
N1003       N  0.41131842  0.00968961  0.52992781    -0.04200
N1004       N  0.40041353  0.98062963  0.54465481    -0.60300
Mn1005     Mn  0.43430537  0.05668154  0.55458140     1.18400
C1006       C  0.39258350  0.95959831  0.51753299     0.98000
C1007       C  0.37936005  0.13534865  0.50297917     0.98700
N1008       N  0.55928381  0.03470403  0.51977387    -0.06500
N1009       N  0.58820037  0.02111548  0.53176727    -0.62800
N1010       N  0.54168975  0.10912050  0.47957471    -0.05300
N1011       N  0.55374192  0.13791062  0.46519942    -0.63500
N1012       N  0.54329468  0.11173644  0.51365067    -0.06000
N1013       N  0.55630391  0.14203321  0.52278808    -0.63100
N1014       N  0.55770731  0.03153289  0.48582687    -0.04900
N1015       N  0.58567397  0.01589101  0.47427719    -0.63800
Mn1016     Mn  0.52526776  0.06979736  0.54856482     1.10700
C1017       C  0.60441371  0.00953445  0.50312575     0.99200
C1018       C  0.56272565  0.15833145  0.49252105     0.99300
N1019       N  0.44958191  0.08769469  0.42659002    -0.06000
N1020       N  0.43246505  0.11139786  0.40865009    -0.61400
N1021       N  0.49607710  0.01127348  0.43133605    -0.05300
N1022       N  0.50973685  0.98395367  0.41501631    -0.58100
N1023       N  0.46233112  0.00711053  0.43382445    -0.06700
N1024       N  0.45270415  0.97732127  0.41945163    -0.61000
N1025       N  0.48303848  0.09263026  0.42406560    -0.05600
N1026       N  0.48938498  0.11966030  0.40418236    -0.58100
Mn1027     Mn  0.42945477  0.04676432  0.46077797     1.20200
Mn1028     Mn  0.52034711  0.06084962  0.45415785     1.10100
Cl1029     Cl  0.47766480  0.05830011  0.50440672    -0.86100
C1030       C  0.45767949  0.13123884  0.39458494     0.96200
C1031       C  0.48231995  0.96265528  0.40756580     0.96000
O1032       O  0.14593335  0.38453497  0.28926026    -0.88300
C1033       C  0.19368787  0.19588970  0.29376950     1.11700
O1034       O  0.18848281  0.33472190  0.24590278    -1.36100
O1035       O  0.22900833  0.27220841  0.35042824    -0.89800
O1036       O  0.17718838  0.41221284  0.24920238    -0.90500
O1037       O  0.26059008  0.38065275  0.25951351    -0.79300
O1038       O  0.18155905  0.32414262  0.31859361    -1.01400
C1039       C  0.30349351  0.28876554  0.28758116     1.21800
O1040       O  0.24739012  0.31001103  0.21640600    -1.36300
Mn1041     Mn  0.19713678  0.28469008  0.22119821     1.82100
O1042       O  0.28964310  0.31790537  0.29320842    -0.78400
O1043       O  0.26031542  0.23283054  0.32268880    -0.87800
C1044       C  0.24053424  0.22291968  0.19960941     1.12800
C1045       C  0.25368867  0.25064132  0.34927617     1.07600
O1046       O  0.17492578  0.29651960  0.17000829    -0.79300
O1047       O  0.21980708  0.27726528  0.27233985    -1.33000
O1048       O  0.19728350  0.34555200  0.17331324    -0.98500
C1049       C  0.32557305  0.34634632  0.19644737     1.06300
Mn1050     Mn  0.25516477  0.23629875  0.27003459     1.48600
O1051       O  0.29870008  0.35711191  0.18171476    -0.87700
Mn1052     Mn  0.18481721  0.37635619  0.21099572     1.49600
O1053       O  0.10936007  0.33489857  0.24461188    -0.91600
C1054       C  0.19922269  0.34471371  0.33434032     1.19500
C1055       C  0.10651407  0.35368918  0.21789557     1.11500
Mn1056     Mn  0.23994184  0.32964494  0.26878598     1.81000
O1057       O  0.25895455  0.23809865  0.22013792    -0.96800
Mn1058     Mn  0.14782824  0.33177084  0.28208087     1.49300
C1059       C  0.15960430  0.41141833  0.27660132     1.08000
Mn1060     Mn  0.29057277  0.27735322  0.21539841     1.49900
C1061       C  0.27929703  0.28946748  0.13704853     1.11000
O1062       O  0.23518226  0.38296884  0.21111703    -1.02600
O1063       O  0.21693442  0.19806263  0.27076059    -0.92200
C1064       C  0.25478809  0.39696504  0.23177982     1.22200
O1065       O  0.28978731  0.27193736  0.26497631    -1.02900
O1066       O  0.18538961  0.22068568  0.31342897    -0.90300
O1067       O  0.29254904  0.27556893  0.16326213    -0.90000
O1068       O  0.13142292  0.37026756  0.20428754    -0.90000
Mn1069     Mn  0.18759026  0.27420081  0.31529618     1.47900
O1070       O  0.21071381  0.23583297  0.19589727    -0.78400
C1071       C  0.17984500  0.32591103  0.15618183     1.15300
O1072       O  0.22787530  0.35127794  0.32006053    -0.77200
O1073       O  0.14853192  0.25856461  0.23313317    -0.76800
Mn1074     Mn  0.24710054  0.34787851  0.17723183     1.51100
O1075       O  0.32623479  0.31876172  0.21456135    -0.89100
O1076       O  0.15002824  0.28143908  0.28271927    -0.96700
O1077       O  0.25644135  0.31283281  0.13786619    -0.91700
C1078       C  0.13644160  0.26051041  0.26362278     1.13100
C1079       C  0.67813332  0.65837694  0.80933336    -0.05900
C1080       C  0.66525827  0.67077538  0.77730820     0.00000
C1081       C  0.64014648  0.64992981  0.76011715    -0.08600
C1082       C  0.62708912  0.61969764  0.77687737    -0.06000
C1083       C  0.63850754  0.60909527  0.80993607     0.00000
C1084       C  0.66597529  0.62783307  0.82535802    -0.08500
C1085       C  0.68371902  0.61463956  0.85783912     0.61900
H1086       H  0.69833548  0.67292322  0.82220531     0.12600
H1087       H  0.60741100  0.60412948  0.76436028     0.12600
C1088       C  0.62705963  0.65942686  0.72444826     0.62100
F1089       F  0.71230989  0.63442475  0.86657426    -0.23000
F1090       F  0.69478666  0.58102090  0.85249407    -0.20400
F1091       F  0.66114601  0.61535340  0.88544719    -0.20000
F1092       F  0.65450945  0.66092453  0.70165179    -0.20100
F1093       F  0.61079583  0.69123791  0.72558619    -0.20400
F1094       F  0.60368781  0.63531374  0.71185412    -0.23100
C1095       C  0.82012022  0.62237009  0.66961150    -0.05900
C1096       C  0.79273864  0.60871722  0.65002298     0.00000
C1097       C  0.75822774  0.61867557  0.65750042    -0.08600
C1098       C  0.75268444  0.64283864  0.68393947    -0.06000
C1099       C  0.78039534  0.65731719  0.70212249     0.00000
C1100       C  0.81458324  0.64653584  0.69565374    -0.08500
C1101       C  0.84523231  0.66046575  0.71608679     0.61900
H1102       H  0.84615319  0.61323281  0.66499152     0.12600
H1103       H  0.72669252  0.65191340  0.68914700     0.12600
C1104       C  0.72656289  0.60516363  0.63862096     0.62100
F1105       F  0.87425339  0.63998007  0.71192242    -0.23000
F1106       F  0.83739858  0.66119377  0.75088866    -0.20400
F1107       F  0.85330658  0.69352593  0.70519335    -0.20000
F1108       F  0.70704104  0.58536483  0.66106462    -0.20100
F1109       F  0.73455875  0.58551330  0.60981900    -0.20400
F1110       F  0.70676392  0.63278570  0.62778271    -0.23100
C1111       C  0.58511049  0.85646688  0.70481510    -0.05900
C1112       C  0.59732087  0.82524901  0.69004370     0.00000
C1113       C  0.57937857  0.81233304  0.66069507    -0.08600
C1114       C  0.55336497  0.83340794  0.64503595    -0.06000
C1115       C  0.54467747  0.86666251  0.65799997     0.00000
C1116       C  0.55943242  0.87720338  0.68973836    -0.08500
C1117       C  0.54975636  0.91018742  0.70905998     0.61900
H1118       H  0.59620568  0.86543189  0.72877128     0.12600
H1119       H  0.53986823  0.82423963  0.62223099     0.12600
C1120       C  0.58756771  0.77686694  0.64604561     0.62100
F1121       F  0.54227065  0.90204845  0.74302697    -0.23000
F1122       F  0.52136085  0.92726035  0.69601071    -0.20400
F1123       F  0.57747358  0.93275513  0.70809636    -0.20000
F1124       F  0.58234575  0.75214043  0.67128411    -0.20100
F1125       F  0.62156773  0.77550302  0.63521931    -0.20400
F1126       F  0.56666771  0.76881617  0.61806598    -0.23100
C1127       C  0.57041706  0.70795136  0.79784332    -0.05900
C1128       C  0.57168532  0.74422406  0.79981569     0.00000
C1129       C  0.54096750  0.76294133  0.80707317    -0.08600
C1130       C  0.51080285  0.74431382  0.81479893    -0.06000
C1131       C  0.51004198  0.70806653  0.81401122     0.00000
C1132       C  0.53957336  0.68956293  0.80320492    -0.08500
C1133       C  0.53973972  0.65091126  0.79616086     0.61900
H1134       H  0.59371775  0.69383120  0.79177028     0.12600
H1135       H  0.48761144  0.75792058  0.82253822     0.12600
C1136       C  0.54008412  0.80225189  0.80822471     0.62100
F1137       F  0.55108013  0.64513709  0.76276948    -0.23000
F1138       F  0.50760255  0.63558253  0.79911510    -0.20400
F1139       F  0.56198619  0.63504864  0.81901058    -0.20000
F1140       F  0.54597852  0.81534053  0.77552265    -0.20100
F1141       F  0.56507880  0.81447283  0.83066871    -0.20400
F1142       F  0.50847613  0.81467260  0.81942282    -0.23100
C1143       C  0.73260419  0.71577373  0.60702289    -0.05900
C1144       C  0.75297846  0.73831580  0.62727891     0.00000
C1145       C  0.78753997  0.74552706  0.61490838    -0.08600
C1146       C  0.79950042  0.72985722  0.58410743    -0.06000
C1147       C  0.77881820  0.70862992  0.56346428     0.00000
C1148       C  0.74461548  0.70135117  0.57516232    -0.08500
C1149       C  0.72089969  0.67802580  0.55433586     0.61900
H1150       H  0.70669396  0.71017180  0.61588667     0.12600
H1151       H  0.82529661  0.73524591  0.57476078     0.12600
C1152       C  0.81222414  0.77097947  0.63236196     0.62100
F1153       F  0.69098034  0.67015371  0.57219363    -0.23000
F1154       F  0.73768363  0.64740723  0.54662314    -0.20400
F1155       F  0.71134669  0.69420408  0.52404616    -0.20000
F1156       F  0.82057150  0.75988107  0.66518632    -0.20100
F1157       F  0.79691010  0.80309796  0.63357438    -0.20400
F1158       F  0.84306541  0.77490404  0.61467323    -0.23100
C1159       C  0.71738198  0.88476317  0.58981428    -0.05900
C1160       C  0.68712339  0.87326279  0.60603081     0.00000
C1161       C  0.65516482  0.88787555  0.59655521    -0.08600
C1162       C  0.65460773  0.91537419  0.57350492    -0.06000
C1163       C  0.68495086  0.92909609  0.55940827     0.00000
C1164       C  0.71717951  0.91305981  0.56721341    -0.08500
C1165       C  0.75200983  0.92457490  0.55322325     0.61900
H1166       H  0.74195623  0.87345807  0.59713024     0.12600
H1167       H  0.62990064  0.92592603  0.56580707     0.12600
C1168       C  0.62159789  0.87431725  0.61037531     0.62100
F1169       F  0.77594942  0.92585104  0.57980467    -0.23000
F1170       F  0.75096681  0.95695917  0.53826765    -0.20400
F1171       F  0.76328602  0.90075329  0.52899049    -0.20000
F1172       F  0.61759111  0.88574743  0.64388690    -0.20100
F1173       F  0.62222766  0.83870142  0.60894719    -0.20400
F1174       F  0.59349257  0.88547991  0.59126907    -0.23100
C1175       C  0.89310358  0.72242069  0.85028188    -0.05900
C1176       C  0.92395022  0.73264071  0.83438227     0.00000
C1177       C  0.92255256  0.74600526  0.80005057    -0.08600
C1178       C  0.88993387  0.75220796  0.78533528    -0.06000
C1179       C  0.85952660  0.73928939  0.80038812     0.00000
C1180       C  0.86222879  0.72031003  0.83178610    -0.08500
C1181       C  0.83541125  0.69421673  0.84414993     0.61900
H1182       H  0.89390703  0.71265486  0.87647812     0.12600
H1183       H  0.88846124  0.76506865  0.76053027     0.12600
C1184       C  0.95411244  0.75141661  0.77719010     0.62100
F1185       F  0.84735893  0.67467380  0.87161568    -0.23000
F1186       F  0.82741302  0.67145057  0.81770673    -0.20400
F1187       F  0.80590180  0.71050914  0.85481913    -0.20000
F1188       F  0.97883950  0.72635192  0.78315023    -0.20100
F1189       F  0.96796223  0.78392565  0.78293007    -0.20400
F1190       F  0.94531908  0.74904772  0.74251810    -0.23100
C1191       C  0.88672564  0.88989396  0.71280904    -0.05900
C1192       C  0.88578329  0.89208930  0.67606375     0.00000
C1193       C  0.85555656  0.87974498  0.65915857    -0.08600
C1194       C  0.82922698  0.86447208  0.67913580    -0.06000
C1195       C  0.83053916  0.86061651  0.71546016     0.00000
C1196       C  0.85999825  0.87401425  0.73269287    -0.08500
C1197       C  0.86456643  0.86908574  0.77127425     0.61900
H1198       H  0.90970491  0.89923520  0.72585162     0.12600
H1199       H  0.80708589  0.85438931  0.66573301     0.12600
C1200       C  0.85073715  0.88124632  0.62004354     0.62100
F1201       F  0.89601881  0.88178425  0.78279614    -0.23000
F1202       F  0.86311048  0.83421286  0.77894476    -0.20400
F1203       F  0.83872941  0.88613749  0.78902212    -0.20000
F1204       F  0.87902508  0.86722997  0.60333109    -0.20100
F1205       F  0.84598400  0.91513895  0.60996096    -0.20400
F1206       F  0.82195957  0.86298312  0.60902542    -0.23100
C1207       C  0.63942915  0.96240800  0.81733582    -0.05900
C1208       C  0.66188904  0.98136061  0.83833444     0.00000
C1209       C  0.69543310  0.96724840  0.84429333    -0.08600
C1210       C  0.70495188  0.93506982  0.82847686    -0.06000
C1211       C  0.68248231  0.91631864  0.80639000     0.00000
C1212       C  0.64876673  0.93093832  0.80101903    -0.08500
C1213       C  0.62213913  0.91475806  0.77724563     0.61900
H1214       H  0.61416529  0.97351169  0.81291839     0.12600
H1215       H  0.73054667  0.92471088  0.83280465     0.12600
C1216       C  0.72119518  0.98574570  0.86745072     0.62100
F1217       F  0.59201036  0.93389337  0.77599597    -0.23000
F1218       F  0.61335169  0.88222191  0.78891697    -0.20400
F1219       F  0.63533139  0.91311511  0.74407753    -0.20000
F1220       F  0.70521316  0.99680693  0.89747213    -0.20100
F1221       F  0.73483055  0.01395038  0.85033952    -0.20400
F1222       F  0.74823381  0.96426045  0.87669994    -0.23100
C1223       C  0.75152789  0.95373984  0.65722616    -0.05900
C1224       C  0.75748383  0.93979969  0.69002666     0.00000
C1225       C  0.78421957  0.95273972  0.71113313    -0.08600
C1226       C  0.80791127  0.97572330  0.69650083    -0.06000
C1227       C  0.80280231  0.98874853  0.66312200     0.00000
C1228       C  0.77260943  0.98008518  0.64432697    -0.08500
C1229       C  0.76158987  0.00002512  0.61236527     0.61900
H1230       H  0.73021706  0.94380333  0.64189108     0.12600
H1231       H  0.82938081  0.98547666  0.71171506     0.12600
C1232       C  0.78554064  0.94508405  0.74946394     0.62100
F1233       F  0.72994114  0.98875476  0.59993701    -0.23000
F1234       F  0.78575439  0.99632787  0.58639642    -0.20400
F1235       F  0.75840557  0.03472920  0.62052686    -0.20000
F1236       F  0.78350472  0.91012882  0.75531622    -0.20100
F1237       F  0.75776735  0.96091068  0.76536786    -0.20400
F1238       F  0.81567071  0.95730032  0.76454239    -0.23100
C1239       C  0.75323734  0.74389156  0.89076438    -0.05900
C1240       C  0.76958286  0.77060288  0.87195101     0.00000
C1241       C  0.80148956  0.78375744  0.88505893    -0.08600
C1242       C  0.81620493  0.76873500  0.91529903    -0.06000
C1243       C  0.80052117  0.74084042  0.93267188     0.00000
C1244       C  0.76835763  0.72841505  0.92019330    -0.08500
C1245       C  0.75036756  0.69820976  0.93757063     0.61900
H1246       H  0.72877677  0.73403449  0.88131632     0.12600
H1247       H  0.84034904  0.77854622  0.92558567     0.12600
C1248       C  0.82033453  0.81300589  0.86708585     0.62100
F1249       F  0.71990280  0.68921831  0.92101020    -0.23000
F1250       F  0.74252703  0.70685295  0.97130978    -0.20400
F1251       F  0.77178155  0.66960302  0.93730372    -0.20000
F1252       F  0.80004161  0.84240083  0.86739828    -0.20100
F1253       F  0.82741977  0.80379847  0.83332865    -0.20400
F1254       F  0.85136831  0.82090160  0.88313691    -0.23100
C1255       C  0.67007455  0.88994228  0.92381308    -0.05900
C1256       C  0.63538699  0.89658048  0.93181124     0.00000
C1257       C  0.60863975  0.87653456  0.91632481    -0.08600
C1258       C  0.61815770  0.84995329  0.89391113    -0.06000
C1259       C  0.65271384  0.84321004  0.88617917     0.00000
C1260       C  0.67929776  0.86287776  0.90166069    -0.08500
C1261       C  0.71699344  0.85481811  0.89548063     0.61900
H1262       H  0.68992649  0.90495247  0.93681128     0.12600
H1263       H  0.59850740  0.83465678  0.88111508     0.12600
C1264       C  0.57024541  0.88254976  0.92288299     0.62100
F1265       F  0.72378312  0.82156784  0.90651645    -0.23000
F1266       F  0.73868889  0.87723583  0.91319668    -0.20400
F1267       F  0.72433774  0.85746655  0.86079362    -0.20000
F1268       F  0.56052818  0.91414874  0.90942283    -0.20100
F1269       F  0.56317440  0.88166863  0.95786182    -0.20400
F1270       F  0.54980108  0.85756222  0.90719471    -0.23100
C1271       C  0.75880688  0.64380198  0.30595291    -0.05900
C1272       C  0.78694941  0.66529237  0.29839573     0.00000
C1273       C  0.82110598  0.65316545  0.30261037    -0.08600
C1274       C  0.82594413  0.61962344  0.31453132    -0.06000
C1275       C  0.79807207  0.59875778  0.32443276     0.00000
C1276       C  0.76367478  0.61067814  0.31998241    -0.08500
C1277       C  0.73226036  0.58986852  0.33126338     0.61900
H1278       H  0.73295093  0.65356810  0.30156109     0.12600
H1279       H  0.85192847  0.60963079  0.31730152     0.12600
C1280       C  0.85243444  0.67538400  0.29464146     0.62100
F1281       F  0.70308470  0.61043922  0.33342623    -0.23000
F1282       F  0.73778698  0.57555303  0.36354483    -0.20400
F1283       F  0.72541738  0.56390031  0.30760461    -0.20000
F1284       F  0.85363288  0.70281089  0.31764609    -0.20100
F1285       F  0.85036918  0.68753148  0.26113161    -0.20400
F1286       F  0.88309850  0.65724595  0.29777870    -0.23100
C1287       C  0.62085510  0.65146496  0.20456322    -0.05900
C1288       C  0.63962980  0.63418336  0.17845240     0.00000
C1289       C  0.67499881  0.64261665  0.17408315    -0.08600
C1290       C  0.68976999  0.66897215  0.19449466    -0.06000
C1291       C  0.67082894  0.68792304  0.21923434     0.00000
C1292       C  0.63593128  0.67810862  0.22531390    -0.08500
C1293       C  0.61506529  0.69482118  0.25398352     0.61900
H1294       H  0.59443995  0.64340012  0.20902409     0.12600
H1295       H  0.71665455  0.67563868  0.19055311     0.12600
C1296       C  0.69735113  0.62387027  0.14771399     0.62100
F1297       F  0.58198691  0.68126794  0.25584229    -0.23000
F1298       F  0.61232863  0.72998549  0.24863508    -0.20400
F1299       F  0.63126901  0.68917667  0.28534988    -0.20000
F1300       F  0.68161551  0.62454155  0.11559073    -0.20100
F1301       F  0.70216858  0.58997828  0.15767416    -0.20400
F1302       F  0.72967501  0.63886716  0.14461426    -0.23100
C1303       C  0.56578872  0.70455608  0.15276963    -0.05900
C1304       C  0.53343897  0.71454171  0.16499197     0.00000
C1305       C  0.52879325  0.74805810  0.17939088    -0.08600
C1306       C  0.55834420  0.76663708  0.18863300    -0.06000
C1307       C  0.59089305  0.75575903  0.17725453     0.00000
C1308       C  0.59346736  0.72708391  0.15416838    -0.08500
C1309       C  0.62276234  0.72157702  0.12827940     0.61900
H1310       H  0.56893555  0.67967429  0.14022415     0.12600
H1311       H  0.55579256  0.79054451  0.20314617     0.12600
C1312       C  0.49398628  0.76600724  0.18227865     0.62100
F1313       F  0.61344890  0.69834091  0.10253383    -0.23000
F1314       F  0.65182622  0.70871045  0.14426546    -0.20400
F1315       F  0.63070050  0.75255863  0.11225533    -0.20000
F1316       F  0.48024589  0.76100618  0.21479386    -0.20100
F1317       F  0.47109201  0.75401309  0.15745755    -0.20400
F1318       F  0.49772129  0.80126593  0.17709022    -0.23100
C1319       C  0.59092605  0.81985554  0.33120702    -0.05900
C1320       C  0.60506947  0.83818871  0.30306589     0.00000
C1321       C  0.58720197  0.86902675  0.29256530    -0.08600
C1322       C  0.55974394  0.88212594  0.31293253    -0.06000
C1323       C  0.54745454  0.86522389  0.34238686     0.00000
C1324       C  0.56247244  0.83258609  0.35086707    -0.08500
C1325       C  0.54973402  0.81006721  0.38030031     0.61900
H1326       H  0.60289724  0.79569768  0.33874323     0.12600
H1327       H  0.54691551  0.90586513  0.30553989     0.12600
C1328       C  0.59569030  0.88805910  0.25935373     0.62100
F1329       F  0.57739487  0.80012588  0.40065126    -0.23000
F1330       F  0.53428156  0.78074342  0.36664589    -0.20400
F1331       F  0.52623361  0.82662772  0.40147845    -0.20000
F1332       F  0.59625102  0.86465501  0.23229125    -0.20100
F1333       F  0.62724731  0.90462298  0.26225566    -0.20400
F1334       F  0.57124637  0.91295309  0.25143542    -0.23100
C1335       C  0.72288524  0.91566434  0.39461048    -0.05900
C1336       C  0.69466426  0.89629809  0.38250035     0.00000
C1337       C  0.66193550  0.89972927  0.39775250    -0.08600
C1338       C  0.65825337  0.92270536  0.42517588    -0.06000
C1339       C  0.68631620  0.94222253  0.43720683     0.00000
C1340       C  0.71927261  0.93885736  0.42208657    -0.08500
C1341       C  0.75036597  0.95906944  0.43507072     0.61900
H1342       H  0.74773613  0.91277978  0.38202775     0.12600
H1343       H  0.63347822  0.92520532  0.43796782     0.12600
C1344       C  0.63122390  0.87963276  0.38481654     0.62100
F1345       F  0.77719144  0.95832634  0.41143529    -0.23000
F1346       F  0.76213764  0.94487599  0.46559517    -0.20400
F1347       F  0.74150030  0.99326239  0.44078377    -0.20000
F1348       F  0.60284203  0.88294766  0.40632196    -0.20100
F1349       F  0.63962315  0.84494082  0.38250738    -0.20400
F1350       F  0.62248305  0.89228347  0.35277576    -0.23100
C1351       C  0.75490190  0.71804103  0.37467217    -0.05900
C1352       C  0.75129983  0.75440520  0.37412824     0.00000
C1353       C  0.75990736  0.77249852  0.40526933    -0.08600
C1354       C  0.77508194  0.75470099  0.43334756    -0.06000
C1355       C  0.78007213  0.71881516  0.43329250     0.00000
C1356       C  0.76812364  0.69992953  0.40399118    -0.08500
C1357       C  0.76857851  0.66077195  0.40333445     0.61900
H1358       H  0.74755393  0.70365774  0.35176412     0.12600
H1359       H  0.78306847  0.76892838  0.45618055     0.12600
C1360       C  0.75115862  0.81014997  0.41027621     0.62100
F1361       F  0.74247861  0.64840024  0.38231610    -0.23000
F1362       F  0.76311061  0.64706644  0.43586840    -0.20400
F1363       F  0.80003455  0.64942364  0.39087754    -0.20000
F1364       F  0.71640159  0.81480726  0.40356675    -0.20100
F1365       F  0.77112932  0.82984608  0.38855698    -0.20400
F1366       F  0.75734620  0.82152132  0.44372646    -0.23100
C1367       C  0.63115187  0.84341989  0.09477783    -0.05900
C1368       C  0.66625577  0.84476837  0.10348641     0.00000
C1369       C  0.68844684  0.86810532  0.08662645    -0.08600
C1370       C  0.67400186  0.89197013  0.06366723    -0.06000
C1371       C  0.63860865  0.89131853  0.05563866     0.00000
C1372       C  0.61693025  0.86565203  0.07021159    -0.08500
C1373       C  0.57943211  0.86069924  0.05938375     0.61900
H1374       H  0.61467354  0.82528456  0.10835142     0.12600
H1375       H  0.69044844  0.91043632  0.05052786     0.12600
C1376       C  0.72698387  0.86710572  0.09239384     0.62100
F1377       F  0.56522769  0.83107969  0.07360867    -0.23000
F1378       F  0.57719107  0.85757623  0.02384602    -0.20400
F1379       F  0.55981637  0.88847783  0.07021336    -0.20000
F1380       F  0.73932840  0.83514043  0.08212596    -0.20100
F1381       F  0.73409695  0.87206254  0.12694407    -0.20400
F1382       F  0.74412652  0.89238212  0.07375392    -0.23100
C1383       C  0.81511620  0.77703432  0.07240453    -0.05900
C1384       C  0.80396290  0.74365023  0.06233333     0.00000
C1385       C  0.77934363  0.72682564  0.08345120    -0.08600
C1386       C  0.76906275  0.74249038  0.11485778    -0.06000
C1387       C  0.78222093  0.77467050  0.12675896     0.00000
C1388       C  0.80583407  0.79234853  0.10477626    -0.08500
C1389       C  0.82274979  0.82611450  0.11590280     0.61900
H1390       H  0.83278228  0.79036387  0.05531990     0.12600
H1391       H  0.75065892  0.72881638  0.13083155     0.12600
C1392       C  0.76315127  0.69261663  0.07264369     0.62100
F1393       F  0.84581943  0.83813802  0.09138885    -0.23000
F1394       F  0.84064635  0.82133874  0.14647614    -0.20400
F1395       F  0.79815151  0.85134233  0.12085022    -0.20000
F1396       F  0.78697672  0.66627989  0.07610254    -0.20100
F1397       F  0.75224454  0.69419299  0.03867656    -0.20400
F1398       F  0.73459581  0.68462924  0.09256009    -0.23100
C1399       C  0.65443819  0.91280520  0.17577385    -0.05900
C1400       C  0.69098457  0.91507377  0.17772884     0.00000
C1401       C  0.70717781  0.94357299  0.16184442    -0.08600
C1402       C  0.68656785  0.96778937  0.14379313    -0.06000
C1403       C  0.65002214  0.96626534  0.14388210     0.00000
C1404       C  0.63371902  0.93739023  0.15913444    -0.08500
C1405       C  0.59454255  0.93309809  0.15965114     0.61900
H1406       H  0.64142084  0.89220357  0.18921217     0.12600
H1407       H  0.69862925  0.99047835  0.13271567     0.12600
C1408       C  0.74457668  0.95172545  0.16923218     0.62100
F1409       F  0.58418075  0.90410791  0.17770504    -0.23000
F1410       F  0.58238346  0.92918205  0.12632059    -0.20400
F1411       F  0.57917011  0.96152399  0.17503887    -0.20000
F1412       F  0.76567962  0.92520532  0.15801996    -0.20100
F1413       F  0.74810351  0.95602015  0.20451581    -0.20400
F1414       F  0.75522951  0.98190802  0.15330762    -0.23100
C1415       C  0.81679896  0.99565668  0.28467009    -0.05900
C1416       C  0.80503763  0.01337584  0.31367489     0.00000
C1417       C  0.77402115  0.00359686  0.33020165    -0.08600
C1418       C  0.75794495  0.97310795  0.31932722    -0.06000
C1419       C  0.77159836  0.95339105  0.29221567     0.00000
C1420       C  0.80033313  0.96566505  0.27322279    -0.08500
C1421       C  0.81533127  0.94892370  0.24140334     0.61900
H1422       H  0.83970055  0.00490753  0.27139698     0.12600
H1423       H  0.73519000  0.96373649  0.33270568     0.12600
C1424       C  0.75773985  0.02546658  0.35848125     0.62100
F1425       F  0.81287951  0.97155312  0.21388102    -0.23000
F1426       F  0.79908723  0.91838929  0.23260989    -0.20400
F1427       F  0.84982304  0.94270608  0.24724518    -0.20000
F1428       F  0.75087499  0.05807976  0.34579195    -0.20100
F1429       F  0.77983259  0.02830673  0.38643050    -0.20400
F1430       F  0.72688669  0.01142529  0.36995672    -0.23100
C1431       C  0.89900410  0.86832392  0.32056414    -0.05900
C1432       C  0.91853748  0.88860702  0.29797197     0.00000
C1433       C  0.90590930  0.89240071  0.26345730    -0.08600
C1434       C  0.87370408  0.87684253  0.25376349    -0.06000
C1435       C  0.85269468  0.85872378  0.27737960     0.00000
C1436       C  0.86694085  0.85325529  0.31136458    -0.08500
C1437       C  0.84890758  0.83192287  0.33889226     0.61900
H1438       H  0.90928332  0.86467832  0.34633702     0.12600
H1439       H  0.86425475  0.87959489  0.22755914     0.12600
C1440       C  0.92547196  0.91368424  0.23701281     0.62100
F1441       F  0.86802109  0.82922882  0.36907372    -0.23000
F1442       F  0.84327600  0.79863247  0.32695432    -0.20400
F1443       F  0.81815569  0.84766350  0.34730258    -0.20000
F1444       F  0.95456920  0.89599335  0.22655874    -0.20100
F1445       F  0.93496650  0.94525465  0.25111523    -0.20400
F1446       F  0.90571364  0.92008268  0.20786316    -0.23100
C1447       C  0.92980219  0.74137776  0.20100596    -0.05900
C1448       C  0.92544452  0.73400173  0.16571935     0.00000
C1449       C  0.89419717  0.74132369  0.14903107    -0.08600
C1450       C  0.86615952  0.75007605  0.16956049    -0.06000
C1451       C  0.86930718  0.75415669  0.20552984     0.00000
C1452       C  0.90239038  0.75339434  0.22107815    -0.08500
C1453       C  0.90925082  0.76526474  0.25785927     0.61900
H1454       H  0.95487570  0.73726153  0.21276754     0.12600
H1455       H  0.84123468  0.75298394  0.15730622     0.12600
C1456       C  0.88883649  0.74105349  0.11020349     0.62100
F1457       F  0.94405140  0.76410820  0.26612034    -0.23000
F1458       F  0.89181363  0.74458742  0.28093282    -0.20400
F1459       F  0.89854162  0.79909948  0.26161065    -0.20000
F1460       F  0.91711326  0.73113400  0.09094366    -0.20100
F1461       F  0.88073327  0.77414279  0.09998512    -0.20400
F1462       F  0.86190358  0.71890006  0.10262896    -0.23100
C1463       C  0.20129411  0.67708263  0.65460740    -0.05900
C1464       C  0.19402613  0.68119861  0.69006702     0.00000
C1465       C  0.17084045  0.65712805  0.70576081    -0.08600
C1466       C  0.15137662  0.63492886  0.68451423    -0.06000
C1467       C  0.15823625  0.63118068  0.64925752     0.00000
C1468       C  0.18481306  0.65132224  0.63424399    -0.08500
C1469       C  0.19615523  0.64466681  0.59734450     0.61900
H1470       H  0.22014161  0.69399759  0.64298682     0.12600
H1471       H  0.13266966  0.61745691  0.69588918     0.12600
C1472       C  0.17058034  0.64997190  0.74446925     0.62100
F1473       F  0.22241010  0.66684364  0.58739072    -0.23000
F1474       F  0.16846973  0.64902379  0.57518177    -0.20400
F1475       F  0.20817384  0.61111309  0.59429260    -0.20000
F1476       F  0.14836588  0.62321599  0.75303360    -0.20100
F1477       F  0.16054364  0.67834106  0.76341692    -0.20400
F1478       F  0.20326730  0.64000003  0.75442519    -0.23100
C1479       C  0.26935440  0.64978157  0.84634172    -0.05900
C1480       C  0.26957055  0.65960765  0.81149452     0.00000
C1481       C  0.28356561  0.63636972  0.78663103    -0.08600
C1482       C  0.29874661  0.60535518  0.79805153    -0.06000
C1483       C  0.29863865  0.59562091  0.83297794     0.00000
C1484       C  0.28162510  0.61742103  0.85731412    -0.08500
C1485       C  0.27409723  0.60744296  0.89457225     0.61900
H1486       H  0.25760489  0.66698177  0.86513003     0.12600
H1487       H  0.31111488  0.58855550  0.77928326     0.12600
C1488       C  0.28420162  0.64254387  0.74807499     0.62100
F1489       F  0.24093621  0.61754557  0.90333058    -0.23000
F1490       F  0.29717686  0.62416081  0.91628950    -0.20400
F1491       F  0.27584648  0.57216873  0.90002499    -0.20000
F1492       F  0.31801187  0.64138506  0.73677312    -0.20100
F1493       F  0.26998911  0.67383060  0.73882955    -0.20400
F1494       F  0.26600235  0.61650795  0.73147865    -0.23100
C1495       C  0.34123508  0.74496223  0.81304513    -0.05900
C1496       C  0.33463395  0.74006378  0.77730999     0.00000
C1497       C  0.35296843  0.71330987  0.75969241    -0.08600
C1498       C  0.37628127  0.69271959  0.77888710    -0.06000
C1499       C  0.38351050  0.69903233  0.81400778     0.00000
C1500       C  0.36546891  0.72548171  0.83152710    -0.08500
C1501       C  0.37297543  0.73459742  0.86918010     0.61900
H1502       H  0.32742154  0.76493625  0.82691269     0.12600
H1503       H  0.39161517  0.67321236  0.76590035     0.12600
C1504       C  0.35205494  0.70855270  0.72060807     0.62100
F1505       F  0.35358985  0.76246076  0.88057946    -0.23000
F1506       F  0.40747401  0.74318773  0.87313506    -0.20400
F1507       F  0.36514223  0.70678317  0.89011322    -0.20000
F1508       F  0.36633934  0.73704503  0.70533621    -0.20100
F1509       F  0.31895253  0.70430386  0.70825480    -0.20400
F1510       F  0.37111016  0.68016026  0.70996588    -0.23100
C1511       C  0.40919719  0.85452333  0.66128339    -0.05900
C1512       C  0.41943425  0.88927252  0.65890401     0.00000
C1513       C  0.39949918  0.91503012  0.67638224    -0.08600
C1514       C  0.36911748  0.90477314  0.69347410    -0.06000
C1515       C  0.36016033  0.86987456  0.69717318     0.00000
C1516       C  0.38126272  0.84428868  0.68197891    -0.08500
C1517       C  0.37576188  0.80644947  0.68927998     0.61900
H1518       H  0.42470341  0.83510608  0.64838368     0.12600
H1519       H  0.35267957  0.92403006  0.70547939     0.12600
C1520       C  0.41064929  0.95275721  0.67954321     0.62100
F1521       F  0.39766586  0.78577393  0.66991508    -0.23000
F1522       F  0.34214130  0.79707852  0.68176370    -0.20400
F1523       F  0.38242571  0.80053117  0.72392451    -0.20000
F1524       F  0.40459210  0.97003317  0.64894843    -0.20100
F1525       F  0.44528891  0.95490097  0.68814863    -0.20400
F1526       F  0.39242362  0.96988646  0.70514792    -0.23100
C1527       C  0.30845682  0.81596681  0.61672931    -0.05900
C1528       C  0.28611892  0.83889153  0.63421556     0.00000
C1529       C  0.28869473  0.87538152  0.62557548    -0.08600
C1530       C  0.31332146  0.88589257  0.60120041    -0.06000
C1531       C  0.33432180  0.86290735  0.58349819     0.00000
C1532       C  0.33272162  0.82731824  0.59198491    -0.08500
C1533       C  0.35584667  0.80041516  0.57540322     0.61900
H1534       H  0.30708959  0.78855760  0.62244292     0.12600
H1535       H  0.31443814  0.91296338  0.59375067     0.12600
C1536       C  0.26738619  0.90649338  0.63769615     0.62100
F1537       F  0.36976213  0.77936991  0.60068671    -0.23000
F1538       F  0.38300408  0.81507127  0.55740284    -0.20400
F1539       F  0.33646184  0.78025192  0.55303601    -0.20000
F1540       F  0.28937433  0.93130593  0.65145959    -0.20100
F1541       F  0.24270453  0.90055273  0.66181516    -0.20400
F1542       F  0.25088792  0.92066347  0.60928543    -0.23100
C1543       C  0.12799796  0.74753312  0.59599193    -0.05900
C1544       C  0.16299335  0.75220189  0.60377856     0.00000
C1545       C  0.18842158  0.74284006  0.57930039    -0.08600
C1546       C  0.17772408  0.72391901  0.54999872    -0.06000
C1547       C  0.14238281  0.71895626  0.54226389     0.00000
C1548       C  0.11726488  0.73427849  0.56416494    -0.08500
C1549       C  0.07971765  0.74024505  0.55417393     0.61900
H1550       H  0.10869548  0.75689526  0.61405924     0.12600
H1551       H  0.19695879  0.71362875  0.53251178     0.12600
C1552       C  0.22595238  0.75401622  0.58299336     0.62100
F1553       F  0.06903532  0.77217554  0.56631040    -0.23000
F1554       F  0.05913203  0.71497760  0.56881877    -0.20400
F1555       F  0.07485633  0.74069907  0.51875821    -0.20000
F1556       F  0.23898316  0.74492734  0.61492181    -0.20100
F1557       F  0.22811672  0.78955794  0.57950678    -0.20400
F1558       F  0.24666225  0.73912936  0.55788011    -0.23100
C1559       C  0.05927628  0.72939167  0.81539614    -0.05900
C1560       C  0.04774248  0.74821261  0.84400470     0.00000
C1561       C  0.05998817  0.78266556  0.84894343    -0.08600
C1562       C  0.08804432  0.79408682  0.82879940    -0.06000
C1563       C  0.10078881  0.77419139  0.80117864     0.00000
C1564       C  0.08235713  0.74358645  0.79151878    -0.08500
C1565       C  0.08101500  0.72940398  0.75459458     0.61900
H1566       H  0.04698993  0.70474433  0.80991263     0.12600
H1567       H  0.09996651  0.81882796  0.83466594     0.12600
C1568       C  0.04511198  0.80812995  0.87493760     0.62100
F1569       F  0.05796947  0.70211059  0.75135535    -0.23000
F1570       F  0.11247307  0.71753647  0.74336469    -0.20400
F1571       F  0.06958730  0.75512679  0.73279269    -0.20000
F1572       F  0.02123266  0.79333501  0.89693751    -0.20100
F1573       F  0.02920252  0.83474465  0.85721316    -0.20400
F1574       F  0.07146110  0.82190664  0.89496392    -0.23100
C1575       C  0.06246152  0.83240337  0.64864870    -0.05900
C1576       C  0.07535102  0.83835096  0.68199426     0.00000
C1577       C  0.05483123  0.85648404  0.70631715    -0.08600
C1578       C  0.02391564  0.87195700  0.69486046    -0.06000
C1579       C  0.01156956  0.86689983  0.66099453     0.00000
C1580       C  0.02981395  0.84439261  0.63847490    -0.08500
C1581       C  0.01551011  0.83036694  0.60461679     0.61900
H1582       H  0.07744258  0.81677328  0.63079695     0.12600
H1583       H  0.00891218  0.88785286  0.71237491     0.12600
C1584       C  0.06463483  0.85825857  0.74423082     0.62100
F1585       F  0.01630188  0.79459851  0.60560235    -0.23000
F1586       F  0.03586941  0.84168624  0.57756025    -0.20400
F1587       F  0.98169220  0.83979581  0.59831873    -0.20000
F1588       F  0.09817626  0.86958954  0.74806766    -0.20100
F1589       F  0.06169818  0.82565463  0.75837464    -0.20400
F1590       F  0.04335992  0.88040464  0.76262049    -0.23100
C1591       C  0.26586756  0.99703920  0.82884571    -0.05900
C1592       C  0.30090394  0.00711016  0.82907322     0.00000
C1593       C  0.32497183  0.98780466  0.80896002    -0.08600
C1594       C  0.31347798  0.95778894  0.79192030    -0.06000
C1595       C  0.27873058  0.94765277  0.79197708     0.00000
C1596       C  0.25419646  0.96803177  0.80978981    -0.08500
C1597       C  0.21611071  0.95906095  0.80869493     0.61900
H1598       H  0.24755771  0.01251050  0.84329566     0.12600
H1599       H  0.33177354  0.94191236  0.77783444     0.12600
C1600       C  0.36231477  0.99915898  0.80359312     0.62100
F1601       F  0.19673537  0.98075608  0.82956803    -0.23000
F1602       F  0.21130129  0.92553916  0.81982075    -0.20400
F1603       F  0.20402544  0.96198807  0.77517368    -0.20000
F1604       F  0.38177083  0.99220428  0.83270069    -0.20100
F1605       F  0.36381407  0.03414027  0.79624073    -0.20400
F1606       F  0.37745347  0.98178368  0.77619767    -0.23100
C1607       C  0.13302438  0.93411565  0.73561549    -0.05900
C1608       C  0.15186946  0.91439409  0.71127595     0.00000
C1609       C  0.14747789  0.92323483  0.67508041    -0.08600
C1610       C  0.12621819  0.95111206  0.66637117    -0.06000
C1611       C  0.10872598  0.97098542  0.69052370     0.00000
C1612       C  0.11103696  0.96168504  0.72589914    -0.08500
C1613       C  0.09026817  0.97907859  0.75421383     0.61900
H1614       H  0.13526675  0.92785090  0.76283423     0.12600
H1615       H  0.12446689  0.95873331  0.63940701     0.12600
C1616       C  0.16265881  0.90718039  0.64223257     0.62100
F1617       F  0.07141744  0.95424790  0.77170830    -0.23000
F1618       F  0.06723938  0.00330980  0.74170817    -0.20400
F1619       F  0.11250454  0.99515852  0.77724959    -0.20000
F1620       F  0.13582912  0.89612338  0.62113198    -0.20100
F1621       F  0.18403557  0.87984132  0.64628050    -0.20400
F1622       F  0.18116900  0.93225557  0.62465646    -0.23100
C1623       C  0.24930428  0.89481899  0.91462028    -0.05900
C1624       C  0.28571405  0.89690260  0.91598610     0.00000
C1625       C  0.30544122  0.88217395  0.88885863    -0.08600
C1626       C  0.28792026  0.86748493  0.86090085    -0.06000
C1627       C  0.25166286  0.86441863  0.85959740     0.00000
C1628       C  0.23184732  0.87760936  0.88736868    -0.08500
C1629       C  0.19328210  0.87085622  0.88995332     0.61900
H1630       H  0.23475143  0.90509981  0.93621326     0.12600
H1631       H  0.30311944  0.85684046  0.84001682     0.12600
C1632       C  0.34480148  0.87932907  0.88987192     0.62100
F1633       F  0.17985025  0.88283809  0.92090623    -0.23000
F1634       F  0.18707865  0.83563195  0.88803952    -0.20400
F1635       F  0.17593827  0.88716893  0.86340681    -0.20000
F1636       F  0.35554949  0.86619842  0.92132967    -0.20100
F1637       F  0.35963088  0.91139988  0.88456130    -0.20400
F1638       F  0.35728779  0.85735656  0.86443793    -0.23100
C1639       C  0.18858527  0.72843560  0.95505813    -0.05900
C1640       C  0.15297965  0.72321124  0.95827556     0.00000
C1641       C  0.13091290  0.73241741  0.93084687    -0.08600
C1642       C  0.14545620  0.74190699  0.89883214    -0.06000
C1643       C  0.18142255  0.74515940  0.89456079     0.00000
C1644       C  0.20331791  0.74034443  0.92394546    -0.08500
C1645       C  0.24201803  0.74722586  0.92288847     0.61900
H1646       H  0.20473985  0.72291302  0.97724399     0.12600
H1647       H  0.12874761  0.74693844  0.87693429     0.12600
C1648       C  0.09221153  0.73384010  0.93648788     0.62100
F1649       F  0.25789406  0.73980436  0.95410403    -0.23000
F1650       F  0.24794985  0.78183628  0.91595710    -0.20400
F1651       F  0.25734720  0.72698919  0.89770427    -0.20000
F1652       F  0.08479244  0.75281026  0.96595804    -0.20100
F1653       F  0.07856173  0.70099152  0.93960196    -0.20400
F1654       F  0.07610397  0.74969264  0.90948478    -0.23100
C1655       C  0.82023702  0.47940105  0.68165817    -0.05900
C1656       C  0.79705211  0.48659451  0.65480299     0.00000
C1657       C  0.76399738  0.47076755  0.65430782    -0.08600
C1658       C  0.75647691  0.44592511  0.67950324    -0.06000
C1659       C  0.77931039  0.43943806  0.70669375     0.00000
C1660       C  0.81147251  0.45672692  0.70832444    -0.08500
C1661       C  0.83557190  0.45247740  0.73897402     0.61900
H1662       H  0.84461053  0.49315888  0.68250220     0.12600
H1663       H  0.73313297  0.43074338  0.67769642     0.12600
C1664       C  0.73673526  0.47990318  0.62764068     0.62100
F1665       F  0.86388832  0.47433170  0.73703022    -0.23000
F1666       F  0.84768606  0.41891724  0.74067475    -0.20400
F1667       F  0.81768068  0.46035854  0.76887733    -0.20000
F1668       F  0.75059254  0.47766638  0.59481609    -0.20100
F1669       F  0.72470370  0.51304306  0.63307684    -0.20400
F1670       F  0.70851957  0.45802864  0.62971106    -0.23100
C1671       C  0.64919635  0.41913471  0.81641807    -0.05900
C1672       C  0.65405179  0.41616560  0.78033261     0.00000
C1673       C  0.64386397  0.44472856  0.75975247    -0.08600
C1674       C  0.62942706  0.47460324  0.77595680    -0.06000
C1675       C  0.62627694  0.47823741  0.81235764     0.00000
C1676       C  0.63663333  0.44938057  0.83293655    -0.08500
C1677       C  0.63642336  0.44999314  0.87237173     0.61900
H1678       H  0.65639294  0.39730557  0.83225948     0.12600
H1679       H  0.62147878  0.49614012  0.76003822     0.12600
C1680       C  0.65033026  0.44474731  0.72118229     0.62100
F1681       F  0.65609831  0.42361484  0.88615102    -0.23000
F1682       F  0.60321879  0.44531765  0.88448993    -0.20400
F1683       F  0.64999100  0.48078612  0.88474346    -0.20000
F1684       F  0.63263493  0.41785468  0.70548112    -0.20100
F1685       F  0.68522024  0.44082018  0.71542997    -0.20400
F1686       F  0.63998091  0.47535415  0.70586755    -0.23100
C1687       C  0.55936827  0.32513795  0.83883957    -0.05900
C1688       C  0.57263439  0.33332965  0.80624161     0.00000
C1689       C  0.55834769  0.36049865  0.78660908    -0.08600
C1690       C  0.53257288  0.38057669  0.80177890    -0.06000
C1691       C  0.52140115  0.37420186  0.83555199     0.00000
C1692       C  0.53369462  0.34529472  0.85409620    -0.08500
C1693       C  0.52016897  0.33595100  0.88975487     0.61900
H1694       H  0.57107689  0.30418866  0.85327488     0.12600
H1695       H  0.52127732  0.40175813  0.78731267     0.12600
C1696       C  0.56926673  0.36976077  0.75021737     0.62100
F1697       F  0.53400736  0.30514265  0.90155384    -0.23000
F1698       F  0.48464071  0.33227052  0.88871003    -0.20400
F1699       F  0.52882998  0.36160744  0.91319998    -0.20000
F1700       F  0.54136969  0.36567451  0.72817016    -0.20100
F1701       F  0.59600067  0.34956374  0.73801225    -0.20400
F1702       F  0.57948177  0.40400517  0.74955272    -0.23100
C1703       C  0.58016681  0.29056780  0.67404197    -0.05900
C1704       C  0.60019135  0.26680039  0.69301481     0.00000
C1705       C  0.58588874  0.23280420  0.69820668    -0.08600
C1706       C  0.55292913  0.22474748  0.68462758    -0.06000
C1707       C  0.53299029  0.24837085  0.66593684     0.00000
C1708       C  0.54692806  0.28208181  0.66053806    -0.08500
C1709       C  0.52668878  0.30963434  0.64162591     0.61900
H1710       H  0.59045745  0.31636162  0.67038341     0.12600
H1711       H  0.54193901  0.19930662  0.68869207     0.12600
C1712       C  0.60453882  0.20416121  0.71779899     0.62100
F1713       F  0.54756986  0.33695149  0.63173963    -0.23000
F1714       F  0.50162876  0.32252500  0.66339200    -0.20400
F1715       F  0.51141270  0.29609009  0.61218102    -0.20000
F1716       F  0.63597569  0.19733913  0.70241213    -0.20100
F1717       F  0.58610129  0.17342520  0.71780922    -0.20400
F1718       F  0.60924666  0.21372091  0.75196598    -0.23100
C1719       C  0.66221482  0.22254793  0.55498627    -0.05900
C1720       C  0.63536796  0.24619394  0.54961602     0.00000
C1721       C  0.63188376  0.27532836  0.57155461    -0.08600
C1722       C  0.65355613  0.27774261  0.60075182    -0.06000
C1723       C  0.67901392  0.25274552  0.60708556     0.00000
C1724       C  0.68453102  0.22564257  0.58325941    -0.08500
C1725       C  0.71381068  0.20013631  0.58795015     0.61900
H1726       H  0.66518554  0.20122793  0.53695685     0.12600
H1727       H  0.65033646  0.29862417  0.61923426     0.12600
C1728       C  0.60541621  0.30324070  0.56428545     0.62100
F1729       F  0.71621708  0.17725313  0.56042905    -0.23000
F1730       F  0.70859647  0.18122277  0.61776586    -0.20400
F1731       F  0.74471575  0.21802654  0.59040349    -0.20000
F1732       F  0.57270911  0.28886535  0.56288781    -0.20100
F1733       F  0.61267643  0.31884913  0.53300903    -0.20400
F1734       F  0.60567876  0.32867841  0.58956692    -0.23100
C1735       C  0.73841608  0.38036912  0.61575675    -0.05900
C1736       C  0.75982489  0.36272255  0.63924987     0.00000
C1737       C  0.79629278  0.36200351  0.63188614    -0.08600
C1738       C  0.80958990  0.38263474  0.60529310    -0.06000
C1739       C  0.78842154  0.39782573  0.58056442     0.00000
C1740       C  0.75179878  0.39646155  0.58561476    -0.08500
C1741       C  0.72602639  0.40941597  0.55891648     0.61900
H1742       H  0.71074328  0.37980174  0.61988231     0.12600
H1743       H  0.83718007  0.38311864  0.60076559     0.12600
C1744       C  0.82124889  0.33587475  0.64737543     0.62100
F1745       F  0.69744777  0.42375028  0.57474672    -0.23000
F1746       F  0.71466416  0.38191285  0.53894289    -0.20400
F1747       F  0.74030275  0.43441139  0.53775567    -0.20000
F1748       F  0.80718465  0.30332172  0.64356919    -0.20100
F1749       F  0.82778066  0.34305858  0.68159513    -0.20400
F1750       F  0.85296136  0.33534413  0.63080554    -0.23100
C1751       C  0.78441725  0.15877940  0.65165919    -0.05900
C1752       C  0.77639836  0.16354957  0.68652522     0.00000
C1753       C  0.79188961  0.14282929  0.71206559    -0.08600
C1754       C  0.81601127  0.11799623  0.70140407    -0.06000
C1755       C  0.82243261  0.11169949  0.66609128     0.00000
C1756       C  0.80601887  0.13235297  0.64049875    -0.08500
C1757       C  0.80910683  0.12616555  0.60158434     0.61900
H1758       H  0.77298263  0.17599748  0.63293169     0.12600
H1759       H  0.82802101  0.10130530  0.72037890     0.12600
C1760       C  0.78219099  0.14617415  0.74989162     0.62100
F1761       F  0.78652331  0.14663177  0.58286764    -0.23000
F1762       F  0.80136683  0.09213168  0.59356993    -0.20400
F1763       F  0.84203895  0.13417723  0.59050919    -0.20000
F1764       F  0.74790707  0.13702736  0.75401947    -0.20100
F1765       F  0.78685411  0.17985644  0.76095958    -0.20400
F1766       F  0.80195492  0.12484882  0.77068301    -0.23100
C1767       C  0.67069288  0.15439275  0.78582340    -0.05900
C1768       C  0.69547810  0.17427746  0.80411630     0.00000
C1769       C  0.70697481  0.16121903  0.83663191    -0.08600
C1770       C  0.69138743  0.13070414  0.85041023    -0.06000
C1771       C  0.66542165  0.11216360  0.83260375     0.00000
C1772       C  0.65571289  0.12379900  0.79928055    -0.08500
C1773       C  0.62919791  0.10392966  0.77805180     0.61900
H1774       H  0.66246370  0.16341008  0.76068378     0.12600
H1775       H  0.69939291  0.12099125  0.87538558     0.12600
C1776       C  0.73564925  0.17902439  0.85671900     0.62100
F1777       F  0.62350654  0.11899648  0.74616214    -0.23000
F1778       F  0.59808595  0.10289365  0.79554043    -0.20400
F1779       F  0.64060950  0.07051169  0.77238030    -0.20000
F1780       F  0.72624165  0.21253576  0.86480045    -0.20100
F1781       F  0.76540712  0.17953414  0.83697820    -0.20400
F1782       F  0.74303353  0.16208635  0.88733061    -0.23100
C1783       C  0.89494108  0.34925642  0.85652292    -0.05900
C1784       C  0.90177191  0.38472188  0.86200978     0.00000
C1785       C  0.88217424  0.40997769  0.84400250    -0.08600
C1786       C  0.85557505  0.39838938  0.82272471    -0.06000
C1787       C  0.85079505  0.36327339  0.81508622     0.00000
C1788       C  0.87124008  0.33806149  0.83144259    -0.08500
C1789       C  0.86934463  0.30010589  0.82146241     0.61900
H1790       H  0.91108146  0.33045372  0.86951461     0.12600
H1791       H  0.83901870  0.41708143  0.81035478     0.12600
C1792       C  0.89057554  0.44864540  0.84393773     0.62100
F1793       F  0.88032438  0.29613280  0.78767766    -0.23000
F1794       F  0.83588835  0.28811467  0.82416865    -0.20400
F1795       F  0.89012452  0.27984475  0.84233342    -0.20000
F1796       F  0.87104118  0.46654049  0.81993012    -0.20100
F1797       F  0.92487751  0.45385014  0.83542513    -0.20400
F1798       F  0.88368748  0.46314603  0.87581950    -0.23100
C1799       C  0.89217788  0.20209776  0.72272127    -0.05900
C1800       C  0.89719277  0.20638903  0.68675046     0.00000
C1801       C  0.87199468  0.22579050  0.66868088    -0.08600
C1802       C  0.84383484  0.24017845  0.68710725    -0.06000
C1803       C  0.83898065  0.23763665  0.72343172     0.00000
C1804       C  0.86377603  0.21668418  0.74141609    -0.08500
C1805       C  0.86327499  0.20813415  0.77970619     0.61900
H1806       H  0.91132959  0.18726808  0.73677604     0.12600
H1807       H  0.82467231  0.25367240  0.67236399     0.12600
C1808       C  0.87495503  0.23260634  0.63002868     0.62100
F1809       F  0.86208949  0.17256296  0.78352118    -0.23000
F1810       F  0.83586217  0.22183127  0.79752183    -0.20400
F1811       F  0.89334136  0.22025132  0.79489866    -0.20000
F1812       F  0.86816620  0.20260841  0.61176804    -0.20100
F1813       F  0.90768968  0.24452724  0.62204042    -0.20400
F1814       F  0.85166345  0.25724162  0.61888265    -0.23100
C1815       C  0.78667185  0.39132586  0.90420244    -0.05900
C1816       C  0.81486368  0.37574903  0.92009286     0.00000
C1817       C  0.82248806  0.34072218  0.91139720    -0.08600
C1818       C  0.80215617  0.32318185  0.88608103    -0.06000
C1819       C  0.77352445  0.33886979  0.87004089     0.00000
C1820       C  0.76461972  0.37327569  0.88136301    -0.08500
C1821       C  0.73080865  0.39106303  0.87207922     0.61900
H1822       H  0.78043524  0.41748429  0.91216275     0.12600
H1823       H  0.80789183  0.29658590  0.87962617     0.12600
C1824       C  0.85128423  0.32141745  0.92957983     0.62100
F1825       F  0.72424573  0.41910333  0.89347665    -0.23000
F1826       F  0.70350576  0.36824429  0.87589266    -0.20400
F1827       F  0.73211259  0.40334735  0.83866309    -0.20000
F1828       F  0.84034377  0.31129421  0.96195492    -0.20100
F1829       F  0.88009311  0.34238608  0.93304450    -0.20400
F1830       F  0.86083909  0.29206597  0.91138021    -0.23100
C1831       C  0.64851053  0.19231327  0.92041920    -0.05900
C1832       C  0.66030790  0.20651112  0.95175001     0.00000
C1833       C  0.67424294  0.24078509  0.95174910    -0.08600
C1834       C  0.67676737  0.25812129  0.91990938    -0.06000
C1835       C  0.66083025  0.24511676  0.88988826     0.00000
C1836       C  0.64306398  0.21303601  0.89160120    -0.08500
C1837       C  0.61409581  0.20277277  0.86682495     0.61900
H1838       H  0.63872781  0.16601825  0.91999936     0.12600
H1839       H  0.68985266  0.28286974  0.91874758     0.12600
C1840       C  0.68528090  0.26028798  0.98425942     0.62100
F1841       F  0.59298624  0.17749908  0.88091203    -0.23000
F1842       F  0.62727405  0.19001363  0.83629762    -0.20400
F1843       F  0.59341400  0.23115757  0.86006860    -0.20000
F1844       F  0.71682841  0.24814963  0.99569323    -0.20100
F1845       F  0.66071834  0.25689219  0.00996221    -0.20400
F1846       F  0.68907495  0.29537372  0.97805340    -0.23100
C1847       C  0.63918715  0.44867827  0.19186797    -0.05900
C1848       C  0.67514494  0.44425781  0.18880179     0.00000
C1849       C  0.69606782  0.47301649  0.17923395    -0.08600
C1850       C  0.67966974  0.50369525  0.16887421    -0.06000
C1851       C  0.64374881  0.50739711  0.17035019     0.00000
C1852       C  0.62338297  0.48060441  0.18426257    -0.08500
C1853       C  0.58563570  0.48687316  0.19240314     0.61900
H1854       H  0.62363212  0.42712103  0.20058985     0.12600
H1855       H  0.69480678  0.52517673  0.15936757     0.12600
C1856       C  0.73541682  0.47168295  0.17960532     0.62100
F1857       F  0.57124127  0.45951006  0.20995115    -0.23000
F1858       F  0.56714528  0.49195663  0.16229540    -0.20400
F1859       F  0.58258663  0.51592204  0.21316560    -0.20000
F1860       F  0.74713515  0.44492246  0.15894728    -0.20100
F1861       F  0.74697754  0.46693482  0.21313570    -0.20400
F1862       F  0.75002623  0.50204538  0.16753219    -0.23100
C1863       C  0.78746916  0.41915848  0.29574904    -0.05900
C1864       C  0.75151224  0.41508646  0.30183251     0.00000
C1865       C  0.73398476  0.44045437  0.32116463    -0.08600
C1866       C  0.75323081  0.46853601  0.33443679    -0.06000
C1867       C  0.78925516  0.47158383  0.32924606     0.00000
C1868       C  0.80649983  0.44718710  0.30845979    -0.08500
C1869       C  0.84420596  0.45153983  0.29797821     0.61900
H1870       H  0.80116655  0.40005150  0.28057639     0.12600
H1871       H  0.74032503  0.48852889  0.34922811     0.12600
C1872       C  0.69538302  0.43832723  0.32699829     0.62100
F1873       F  0.85423453  0.42726843  0.27355486    -0.23000
F1874       F  0.86545369  0.44774331  0.32640425    -0.20400
F1875       F  0.84922932  0.48398055  0.28380533    -0.20000
F1876       F  0.68756540  0.40872242  0.34542730    -0.20100
F1877       F  0.67848080  0.43748863  0.29543474    -0.20400
F1878       F  0.68326548  0.46648376  0.34549473    -0.23100
C1879       C  0.78576644  0.34158866  0.45431688    -0.05900
C1880       C  0.79779430  0.37582848  0.45417445     0.00000
C1881       C  0.79240296  0.39618178  0.42444568    -0.08600
C1882       C  0.78248314  0.37969290  0.39349580    -0.06000
C1883       C  0.77362196  0.34430282  0.39254731     0.00000
C1884       C  0.77145005  0.32612469  0.42451337    -0.08500
C1885       C  0.75333966  0.29139857  0.42804284     0.61900
H1886       H  0.78753921  0.32702156  0.47811785     0.12600
H1887       H  0.78160039  0.39460122  0.36986598     0.12600
C1888       C  0.79550477  0.43528577  0.42590269     0.62100
F1889       F  0.75045980  0.28137868  0.46226189    -0.23000
F1890       F  0.77133665  0.26598555  0.41068093    -0.20400
F1891       F  0.72023168  0.29376362  0.41479558    -0.20000
F1892       F  0.82970328  0.44497726  0.42357400    -0.20100
F1893       F  0.78175017  0.44806037  0.45638344    -0.20400
F1894       F  0.77745753  0.45036404  0.39930419    -0.23100
C1895       C  0.63941385  0.29647662  0.38263485    -0.05900
C1896       C  0.66085173  0.27228971  0.36586005     0.00000
C1897       C  0.66404870  0.23855756  0.38081681    -0.08600
C1898       C  0.64436690  0.23009884  0.40986116    -0.06000
C1899       C  0.62205163  0.25351787  0.42548728     0.00000
C1900       C  0.62003752  0.28782726  0.41235290    -0.08500
C1901       C  0.59700400  0.31579175  0.42747641     0.61900
H1902       H  0.63719279  0.32233784  0.37210465     0.12600
H1903       H  0.64646291  0.20460002  0.42120716     0.12600
C1904       C  0.68617771  0.21007512  0.36568648     0.62100
F1905       F  0.57650128  0.32950394  0.40157568    -0.23000
F1906       F  0.61741236  0.34192167  0.44105736    -0.20400
F1907       F  0.57535204  0.30373473  0.45314174    -0.20000
F1908       F  0.72015060  0.22077466  0.36268431    -0.20100
F1909       F  0.67242870  0.20158937  0.33406615    -0.20400
F1910       F  0.68626038  0.18026835  0.38549147    -0.23100
C1911       C  0.62155999  0.10030389  0.20406289    -0.05900
C1912       C  0.63773047  0.09000209  0.17349133     0.00000
C1913       C  0.66457240  0.11008067  0.15918519    -0.08600
C1914       C  0.67222952  0.14228675  0.17430005    -0.06000
C1915       C  0.65505333  0.15334737  0.20415144     0.00000
C1916       C  0.63051941  0.13146390  0.22040522    -0.08500
C1917       C  0.61338309  0.14112890  0.25439453     0.61900
H1918       H  0.60161524  0.08381075  0.21474202     0.12600
H1919       H  0.69155425  0.15907860  0.16298825     0.12600
C1920       C  0.68453141  0.09743692  0.12796040     0.62100
F1921       F  0.58906920  0.11686032  0.26445251    -0.23000
F1922       F  0.59689818  0.17249411  0.25125963    -0.20400
F1923       F  0.63795703  0.14348239  0.28021004    -0.20000
F1924       F  0.66253959  0.09346963  0.09999340    -0.20100
F1925       F  0.70011840  0.06614013  0.13520621    -0.20400
F1926       F  0.71025029  0.12029438  0.11910215    -0.23100
C1927       C  0.81477494  0.18220280  0.27009499    -0.05900
C1928       C  0.77857856  0.18179183  0.27382116     0.00000
C1929       C  0.76350921  0.15559924  0.29408497    -0.08600
C1930       C  0.78417870  0.13759026  0.31724542    -0.06000
C1931       C  0.81992870  0.13616666  0.31258949     0.00000
C1932       C  0.83542891  0.15726213  0.28712655    -0.08500
C1933       C  0.87282039  0.15202247  0.27730168     0.61900
H1934       H  0.82652240  0.20139708  0.25348104     0.12600
H1935       H  0.77214650  0.11944745  0.33483421     0.12600
C1936       C  0.72857090  0.14066470  0.28507312     0.62100
F1937       F  0.88239888  0.17366698  0.25065246    -0.23000
F1938       F  0.87784618  0.11830972  0.26628687    -0.20400
F1939       F  0.89368704  0.15838767  0.30565819    -0.20000
F1940       F  0.72517614  0.10684008  0.29631370    -0.20100
F1941       F  0.72418458  0.14045248  0.24957195    -0.20400
F1942       F  0.70325625  0.15987729  0.30035709    -0.23100
C1943       C  0.76788556  0.39675463  0.05008232    -0.05900
C1944       C  0.80210112  0.38609732  0.04520628     0.00000
C1945       C  0.81698553  0.36155536  0.06765998    -0.08600
C1946       C  0.79792722  0.35069165  0.09655968    -0.06000
C1947       C  0.76396687  0.36205257  0.10201766     0.00000
C1948       C  0.74810058  0.38448514  0.07787363    -0.08500
C1949       C  0.71055705  0.39535523  0.08134997     0.61900
H1950       H  0.75667799  0.41440833  0.03149678     0.12600
H1951       H  0.80934851  0.33324980  0.11514073     0.12600
C1952       C  0.85261363  0.34692327  0.06071441     0.62100
F1953       F  0.70082985  0.41818751  0.05561102    -0.23000
F1954       F  0.70518376  0.41139759  0.11284034    -0.20400
F1955       F  0.68953832  0.36647109  0.07896485    -0.20000
F1956       F  0.87694900  0.37309273  0.06262723    -0.20100
F1957       F  0.85355243  0.33221190  0.02814709    -0.20400
F1958       F  0.86129233  0.32143208  0.08409250    -0.23100
C1959       C  0.64650828  0.21269139  0.09188979    -0.05900
C1960       C  0.66963355  0.18971728  0.07629656     0.00000
C1961       C  0.70511320  0.19117352  0.08610207    -0.08600
C1962       C  0.71517704  0.21398890  0.11296459    -0.06000
C1963       C  0.69175037  0.23719761  0.12838208     0.00000
C1964       C  0.65715519  0.23813671  0.11542043    -0.08500
C1965       C  0.63158533  0.26700070  0.12351978     0.61900
H1966       H  0.61999287  0.21267240  0.08294650     0.12600
H1967       H  0.74186790  0.21421761  0.12144386     0.12600
C1968       C  0.73333542  0.17069984  0.06801272     0.62100
F1969       F  0.60313492  0.26617799  0.10174713    -0.23000
F1970       F  0.64739642  0.29879416  0.11899828    -0.20400
F1971       F  0.61938629  0.26398703  0.15684693    -0.20000
F1972       F  0.75071550  0.19217970  0.04540247    -0.20100
F1973       F  0.72026322  0.14262370  0.04991545    -0.20400
F1974       F  0.75700074  0.15840532  0.09183630    -0.23100
C1975       C  0.02620936  0.35612236  0.16203884    -0.05900
C1976       C  0.00967588  0.38455904  0.17685630     0.00000
C1977       C  0.02280413  0.40010813  0.20717512    -0.08600
C1978       C  0.05399400  0.38763961  0.22064315    -0.06000
C1979       C  0.07185216  0.36043145  0.20454670     0.00000
C1980       C  0.05736120  0.34366923  0.17529296    -0.08500
C1981       C  0.07313984  0.31333629  0.15643327     0.61900
H1982       H  0.01506377  0.34410409  0.13917688     0.12600
H1983       H  0.06536670  0.39988538  0.24320960     0.12600
C1984       C  0.00400366  0.42969012  0.22483933     0.62100
F1985       F  0.07796292  0.32237183  0.12231133    -0.23000
F1986       F  0.05052692  0.28559211  0.15744353    -0.20400
F1987       F  0.10433621  0.30313196  0.17023538    -0.20000
F1988       F  0.97057581  0.41968807  0.23257270    -0.20100
F1989       F  0.00305513  0.45810416  0.20323866    -0.20400
F1990       F  0.02005503  0.43944482  0.25535864    -0.23100
C1991       C  0.83371816  0.36978296  0.18916687    -0.05900
C1992       C  0.83288011  0.33318392  0.18719879     0.00000
C1993       C  0.85860931  0.31615628  0.16769232    -0.08600
C1994       C  0.88471103  0.33643953  0.15202602    -0.06000
C1995       C  0.88547954  0.37295182  0.15469089     0.00000
C1996       C  0.85927421  0.38993000  0.17351350    -0.08500
C1997       C  0.85923393  0.42895849  0.17936176     0.61900
H1998       H  0.81409413  0.38310508  0.20390284     0.12600
H1999       H  0.90566081  0.32383422  0.13841282     0.12600
C2000       C  0.85926741  0.27709226  0.16435998     0.62100
F2001       F  0.83245692  0.43949759  0.20063997    -0.23000
F2002       F  0.85528344  0.44587132  0.14822911    -0.20400
F2003       F  0.88988839  0.43914722  0.19479093    -0.20000
F2004       F  0.82999713  0.26585141  0.14709593    -0.20100
F2005       F  0.86028297  0.26231556  0.19683758    -0.20400
F2006       F  0.88784718  0.26573636  0.14610829    -0.23100
C2007       C  0.05448270  0.20607083  0.28119946    -0.05900
C2008       C  0.05557860  0.20372860  0.31772970     0.00000
C2009       C  0.08509449  0.21664215  0.33517583    -0.08600
C2010       C  0.11039618  0.23395764  0.31581333    -0.06000
C2011       C  0.10882530  0.23798234  0.27949659     0.00000
C2012       C  0.08023092  0.22349406  0.26187369    -0.08500
C2013       C  0.07470572  0.23020595  0.22385570     0.61900
H2014       H  0.03173007  0.19625962  0.26809082     0.12600
H2015       H  0.13142794  0.24585789  0.32970373     0.12600
C2016       C  0.08997593  0.21353591  0.37413746     0.62100
F2017       F  0.04397494  0.21617773  0.21189061    -0.23000
F2018       F  0.10144024  0.21615673  0.20480239    -0.20400
F2019       F  0.07355254  0.26551669  0.21891108    -0.20000
F2020       F  0.09479013  0.17925346  0.38279862    -0.20100
F2021       F  0.06164592  0.22673253  0.39143442    -0.20400
F2022       F  0.11879352  0.23130629  0.38576253    -0.23100
C2023       C  0.90610206  0.23796795  0.35452111    -0.05900
C2024       C  0.92883728  0.22744932  0.32823599     0.00000
C2025       C  0.91917260  0.23349038  0.29299452    -0.08600
C2026       C  0.88626965  0.24769931  0.28616193    -0.06000
C2027       C  0.86271442  0.25486009  0.31265533     0.00000
C2028       C  0.87297697  0.25055123  0.34748765    -0.08500
C2029       C  0.84905497  0.25893993  0.37738290     0.61900
H2030       H  0.91419752  0.23524243  0.38116342     0.12600
H2031       H  0.87828672  0.25273206  0.25985274     0.12600
C2032       C  0.94227910  0.22500802  0.26225448     0.62100
F2033       F  0.86542922  0.25624164  0.40911452    -0.23000
F2034       F  0.82171149  0.23592386  0.37713731    -0.20400
F2035       F  0.83696522  0.29241557  0.37432892    -0.20000
F2036       F  0.95680780  0.19256680  0.26591927    -0.20100
F2037       F  0.96789549  0.24973776  0.25923046    -0.20400
F2038       F  0.92403934  0.22503937  0.23141073    -0.23100
C2039       C  0.37341985  0.81902274  0.33849566    -0.05900
C2040       C  0.35928846  0.83640769  0.30958494     0.00000
C2041       C  0.37707668  0.86721570  0.29842632    -0.08600
C2042       C  0.40550270  0.88010971  0.31750774    -0.06000
C2043       C  0.41911147  0.86311607  0.34611530     0.00000
C2044       C  0.40360946  0.83130195  0.35617423    -0.08500
C2045       C  0.41931809  0.81044069  0.38529381     0.61900
H2046       H  0.36089224  0.79549832  0.34702436     0.12600
H2047       H  0.41824014  0.90379362  0.30968775     0.12600
C2048       C  0.36661824  0.88764229  0.26664917     0.62100
F2049       F  0.39946846  0.78180851  0.39328810    -0.23000
F2050       F  0.42240122  0.83088798  0.41455582    -0.20400
F2051       F  0.45169269  0.79887575  0.37574428    -0.20000
F2052       F  0.33539629  0.90346124  0.27301480    -0.20100
F2053       F  0.36437262  0.86603943  0.23818109    -0.20400
F2054       F  0.39018301  0.91335671  0.25847637    -0.23100
C2055       C  0.40052727  0.70750434  0.15719481    -0.05900
C2056       C  0.41778830  0.69175950  0.18498695     0.00000
C2057       C  0.41249768  0.70509042  0.21905814    -0.08600
C2058       C  0.39011542  0.73343478  0.22349651    -0.06000
C2059       C  0.37376967  0.74887560  0.19517815     0.00000
C2060       C  0.38044700  0.73678994  0.16142496    -0.08500
C2061       C  0.36721966  0.75378338  0.12863282     0.61900
H2062       H  0.40520568  0.69912232  0.13085437     0.12600
H2063       H  0.38423723  0.74268998  0.24932601     0.12600
C2064       C  0.42985395  0.69082096  0.25122181     0.62100
F2065       F  0.39458365  0.75951798  0.10636347    -0.23000
F2066       F  0.35160155  0.78533929  0.13455811    -0.20400
F2067       F  0.34394755  0.73170185  0.11270579    -0.20000
F2068       F  0.45523116  0.71349600  0.26233135    -0.20100
F2069       F  0.44436918  0.65862005  0.24551304    -0.20400
F2070       F  0.40603430  0.68780195  0.27757414    -0.23100
C2071       C  0.14395915  0.73880171  0.40503648    -0.05900
C2072       C  0.15683494  0.70756521  0.41703386     0.00000
C2073       C  0.19123603  0.69843478  0.40737794    -0.08600
C2074       C  0.20906641  0.71847144  0.38191942    -0.06000
C2075       C  0.19587332  0.75031879  0.36995048     0.00000
C2076       C  0.16387823  0.76147768  0.38482834    -0.08500
C2077       C  0.15156193  0.79833217  0.38266396     0.61900
H2078       H  0.11893684  0.74699230  0.41456941     0.12600
H2079       H  0.23393301  0.71005728  0.37233538     0.12600
C2080       C  0.20957117  0.66887335  0.42536143     0.62100
F2081       F  0.12741884  0.80597283  0.40797904    -0.23000
F2082       F  0.13631338  0.80367493  0.35082118    -0.20400
F2083       F  0.17935037  0.82028127  0.38794599    -0.20000
F2084       F  0.19016506  0.63895309  0.42258181    -0.20100
F2085       F  0.21413336  0.67663100  0.45996789    -0.20400
F2086       F  0.24191905  0.66298145  0.41148519    -0.23100
C2087       C  0.30781901  0.83635974  0.40720074    -0.05900
C2088       C  0.29075184  0.86486019  0.39275685     0.00000
C2089       C  0.28919260  0.89641762  0.41106202    -0.08600
C2090       C  0.30665583  0.89927267  0.44254484    -0.06000
C2091       C  0.32522302  0.87149195  0.45656476     0.00000
C2092       C  0.32487934  0.83894424  0.43939691    -0.08500
C2093       C  0.34185535  0.80715139  0.45480276     0.61900
H2094       H  0.30745202  0.81208021  0.39311531     0.12600
H2095       H  0.30603678  0.92354638  0.45663835     0.12600
C2096       C  0.26794638  0.92647197  0.39787004     0.62100
F2097       F  0.34261556  0.77992012  0.43150888    -0.23000
F2098       F  0.32338385  0.79620050  0.48322368    -0.20400
F2099       F  0.37539778  0.81459026  0.46468171    -0.20000
F2100       F  0.26806930  0.95421101  0.42061781    -0.20100
F2101       F  0.23412179  0.91563767  0.39356954    -0.20400
F2102       F  0.28106546  0.93775673  0.36663174    -0.23100
C2103       C  0.09401260  0.88617268  0.25711777    -0.05900
C2104       C  0.11835107  0.87628242  0.28260566     0.00000
C2105       C  0.10828972  0.88390777  0.31802420    -0.08600
C2106       C  0.07490727  0.89646443  0.32546601    -0.06000
C2107       C  0.05038985  0.90477913  0.30052166     0.00000
C2108       C  0.06128463  0.90160909  0.26525242    -0.08500
C2109       C  0.04054459  0.91568664  0.23524870     0.61900
H2110       H  0.10074503  0.88223587  0.23019956     0.12600
H2111       H  0.06761480  0.89955860  0.35230821     0.12600
C2112       C  0.13028671  0.88306730  0.35056765     0.62100
F2113       F  0.06213484  0.93397935  0.21338550    -0.23000
F2114       F  0.01485920  0.93810264  0.24584193    -0.20400
F2115       F  0.02602613  0.88849317  0.21699279    -0.20000
F2116       F  0.13769231  0.91665033  0.36063573    -0.20100
F2117       F  0.16030840  0.86588857  0.34713529    -0.20400
F2118       F  0.11245893  0.86715849  0.37717108    -0.23100
C2119       C  0.07653456  0.77776307  0.18923777    -0.05900
C2120       C  0.09645771  0.75089649  0.20277437     0.00000
C2121       C  0.09308409  0.71682009  0.18845071    -0.08600
C2122       C  0.06998056  0.71134483  0.16143331    -0.06000
C2123       C  0.04825823  0.73735512  0.14927384     0.00000
C2124       C  0.05315685  0.77193108  0.16195017    -0.08500
C2125       C  0.03488574  0.80360004  0.14763125     0.61900
H2126       H  0.08049360  0.80387974  0.19885230     0.12600
H2127       H  0.06719890  0.68536480  0.15143034     0.12600
C2128       C  0.11451240  0.68554615  0.19945734     0.62100
F2129       F  0.05887144  0.82906954  0.14041905    -0.23000
F2130       F  0.01233354  0.81667227  0.17212315    -0.20400
F2131       F  0.01690110  0.79639309  0.11751304    -0.20000
F2132       F  0.09758337  0.65468201  0.19248707    -0.20100
F2133       F  0.12129643  0.68587575  0.23444005    -0.20400
F2134       F  0.14520309  0.68549375  0.18128665    -0.23100
C2135       C  0.16583278  0.71858864  0.10011370    -0.05900
C2136       C  0.13802700  0.73496704  0.08462280     0.00000
C2137       C  0.13060944  0.76972003  0.09437027    -0.08600
C2138       C  0.14932028  0.78512408  0.12226372    -0.06000
C2139       C  0.17857463  0.76899342  0.13688575     0.00000
C2140       C  0.18866920  0.73616076  0.12212722    -0.08500
C2141       C  0.22433666  0.71948503  0.12233947     0.61900
H2142       H  0.17300865  0.69315739  0.09044821     0.12600
H2143       H  0.14178956  0.81025829  0.13209198     0.12600
C2144       C  0.10334244  0.79032761  0.07528430     0.62100
F2145       F  0.23644820  0.71809451  0.08869172    -0.23000
F2146       F  0.22204745  0.68585800  0.13399328    -0.20400
F2147       F  0.24871222  0.73661575  0.14131809    -0.20000
F2148       F  0.07191737  0.77347885  0.07741078    -0.20100
F2149       F  0.11216950  0.79384811  0.04089937    -0.20400
F2150       F  0.09992580  0.82330837  0.08878206    -0.23100
C2151       C  0.29336204  0.84405201  0.04348320    -0.05900
C2152       C  0.30371940  0.87879543  0.04276117     0.00000
C2153       C  0.30459475  0.89787361  0.07407388    -0.08600
C2154       C  0.29979954  0.88028830  0.10543899    -0.06000
C2155       C  0.29053356  0.84504939  0.10664557     0.00000
C2156       C  0.28520137  0.82717290  0.07470419    -0.08500
C2157       C  0.27052310  0.79087165  0.07290137     0.61900
H2158       H  0.29185239  0.83010361  0.01920644     0.12600
H2159       H  0.30256268  0.89463273  0.12941836     0.12600
C2160       C  0.30937195  0.93692642  0.07504939     0.62100
F2161       F  0.26799963  0.77867177  0.03926754    -0.23000
F2162       F  0.23766474  0.79096847  0.08678604    -0.20400
F2163       F  0.29140489  0.76841808  0.09097161    -0.20000
F2164       F  0.29236077  0.95063166  0.10290521    -0.20100
F2165       F  0.29566874  0.95260952  0.04598817    -0.20400
F2166       F  0.34394826  0.94526251  0.07830030    -0.23100
C2167       C  0.28874543  0.18027954  0.19124157    -0.05900
C2168       C  0.25414413  0.18936516  0.18345204     0.00000
C2169       C  0.23495145  0.16579877  0.16245552    -0.08600
C2170       C  0.25102207  0.13471263  0.15038586    -0.06000
C2171       C  0.28560300  0.12602282  0.15840555     0.00000
C2172       C  0.30454557  0.14929954  0.17972816    -0.08500
C2173       C  0.34106292  0.14100250  0.19176606     0.61900
H2174       H  0.30381564  0.19776688  0.20715003     0.12600
H2175       H  0.23647020  0.11658962  0.13466449     0.12600
C2176       C  0.19757673  0.17292576  0.15322835     0.62100
F2177       F  0.35312847  0.16478831  0.21576715    -0.23000
F2178       F  0.36352550  0.14147447  0.16409209    -0.20400
F2179       F  0.34173882  0.10868946  0.20703004    -0.20000
F2180       F  0.19518946  0.20394098  0.13569488    -0.20100
F2181       F  0.17796666  0.17461740  0.18305880    -0.20400
F2182       F  0.18379632  0.14727015  0.13225192    -0.23100
C2183       C  0.29456269  0.94630264  0.20764906    -0.05900
C2184       C  0.26559712  0.92849863  0.19406876     0.00000
C2185       C  0.24710827  0.94509656  0.16679035    -0.08600
C2186       C  0.25784004  0.97859551  0.15534349    -0.06000
C2187       C  0.28825932  0.99474423  0.16757033     0.00000
C2188       C  0.30629108  0.97858551  0.19497195    -0.08500
C2189       C  0.33738748  0.99605278  0.21161837     0.61900
H2190       H  0.30854574  0.93454578  0.22856099     0.12600
H2191       H  0.24381517  0.99144368  0.13483709     0.12600
C2192       C  0.21750498  0.92702753  0.14825845     0.62100
F2193       F  0.34969595  0.97766496  0.23969268    -0.23000
F2194       F  0.32823639  0.02871384  0.22308091    -0.20400
F2195       F  0.36392705  0.99893298  0.18794897    -0.20000
F2196       F  0.18980991  0.92315115  0.17034884    -0.20100
F2197       F  0.22803541  0.89481429  0.13674867    -0.20400
F2198       F  0.20635862  0.94553097  0.11977225    -0.23100
C2199       C  0.15578402  0.12278574  0.34289892    -0.05900
C2200       C  0.12695270  0.11467217  0.32263708     0.00000
C2201       C  0.12249235  0.13030161  0.28989719    -0.08600
C2202       C  0.14637001  0.15572442  0.27952787    -0.06000
C2203       C  0.17516098  0.16370466  0.30012237     0.00000
C2204       C  0.18061069  0.14621432  0.33159620    -0.08500
C2205       C  0.21289582  0.15212618  0.35289189     0.61900
H2206       H  0.15946523  0.10933820  0.36715731     0.12600
H2207       H  0.14250410  0.16989373  0.25571601     0.12600
C2208       C  0.09288657  0.11992889  0.26632850     0.62100
F2209       F  0.21590804  0.12845453  0.37951322    -0.23000
F2210       F  0.21206586  0.18488800  0.36722334    -0.20400
F2211       F  0.24153150  0.14871836  0.33177289    -0.20000
F2212       F  0.06199727  0.12226407  0.28409034    -0.20100
F2213       F  0.09739387  0.08624598  0.25509055    -0.20400
F2214       F  0.09092934  0.14096253  0.23750006    -0.23100
C2215       C  0.20022921  0.96980050  0.33910966    -0.05900
C2216       C  0.19959304  0.95478503  0.30626803     0.00000
C2217       C  0.17321254  0.96361579  0.28277436    -0.08600
C2218       C  0.14496575  0.98263391  0.29490761    -0.06000
C2219       C  0.14436597  0.99572074  0.32875430     0.00000
C2220       C  0.17343299  0.99102226  0.35072141    -0.08500
C2221       C  0.17688337  0.00869573  0.38582961     0.61900
H2222       H  0.22147419  0.96382413  0.35602248     0.12600
H2223       H  0.12399309  0.98918559  0.27754490     0.12600
C2224       C  0.17633317  0.95515502  0.24474781     0.62100
F2225       F  0.20888949  0.00284438  0.40071985    -0.23000
F2226       F  0.15214272  0.99625656  0.40830247    -0.20400
F2227       F  0.17309112  0.04405947  0.38224083    -0.20000
F2228       F  0.14734409  0.96506204  0.22627779    -0.20100
F2229       F  0.18081299  0.92025789  0.24014111    -0.20400
F2230       F  0.20468167  0.97234472  0.23147552    -0.23100
C2231       C  0.30153060  0.43107472  0.76875069    -0.05900
C2232       C  0.27282546  0.41523112  0.78478941     0.00000
C2233       C  0.26425590  0.42705080  0.81924666    -0.08600
C2234       C  0.28489167  0.45229993  0.83569246    -0.06000
C2235       C  0.31256571  0.46827970  0.81947396     0.00000
C2236       C  0.32145785  0.45738378  0.78550571    -0.08500
C2237       C  0.35246029  0.47314050  0.76757358     0.61900
H2238       H  0.30801218  0.42319788  0.74272124     0.12600
H2239       H  0.27848389  0.46146529  0.86138646     0.12600
C2240       C  0.23255617  0.41515114  0.83921487     0.62100
F2241       F  0.35898385  0.45729476  0.73610914    -0.23000
F2242       F  0.38138085  0.46941776  0.78828552    -0.20400
F2243       F  0.34689133  0.50794257  0.76171615    -0.20000
F2244       F  0.23636120  0.38118422  0.84920390    -0.20100
F2245       F  0.20343899  0.41920375  0.81894808    -0.20400
F2246       F  0.22734266  0.43415637  0.86918633    -0.23100
C2247       C  0.17879051  0.49524528  0.66368947    -0.05900
C2248       C  0.14466309  0.50502381  0.65566439     0.00000
C2249       C  0.11671576  0.48563851  0.66975212    -0.08600
C2250       C  0.12418696  0.45511961  0.68743676    -0.06000
C2251       C  0.15800290  0.44549961  0.69566458     0.00000
C2252       C  0.18591237  0.46641428  0.68476017    -0.08500
C2253       C  0.22277657  0.45830633  0.69514523     0.61900
H2254       H  0.19985376  0.51076577  0.65379366     0.12600
H2255       H  0.10315341  0.43871711  0.69570680     0.12600
C2256       C  0.07896757  0.49682656  0.66821267     0.62100
F2257       F  0.24627222  0.48004949  0.67919015    -0.23000
F2258       F  0.23075217  0.42467102  0.68613422    -0.20400
F2259       F  0.22636233  0.46230210  0.73051361    -0.20000
F2260       F  0.06406744  0.48556513  0.63767592    -0.20100
F2261       F  0.07589811  0.53236705  0.67111244    -0.20400
F2262       F  0.06027397  0.48268404  0.69521016    -0.23100
C2263       C  0.35520538  0.29329823  0.67209446    -0.05900
C2264       C  0.33347854  0.27012383  0.68998728     0.00000
C2265       C  0.34648122  0.23548648  0.69475023    -0.08600
C2266       C  0.37899051  0.22591830  0.68090491    -0.06000
C2267       C  0.40054402  0.24885445  0.66319140     0.00000
C2268       C  0.38843997  0.28359470  0.65906907    -0.08500
C2269       C  0.41021617  0.31088907  0.64128520     0.61900
H2270       H  0.34625023  0.31961693  0.66890872     0.12600
H2271       H  0.38850581  0.19985274  0.68441457     0.12600
C2272       C  0.32669769  0.20757288  0.71410780     0.62100
F2273       F  0.39067332  0.33919367  0.63148594    -0.23000
F2274       F  0.42561097  0.29745586  0.61191078    -0.20400
F2275       F  0.43521898  0.32256750  0.66387951    -0.20000
F2276       F  0.29577205  0.20148453  0.69755296    -0.20100
F2277       F  0.32118351  0.21768279  0.74797798    -0.20400
F2278       F  0.34416876  0.17634912  0.71516220    -0.23100
C2279       C  0.35222940  0.35010463  0.84617627    -0.05900
C2280       C  0.34771595  0.34605263  0.81041604     0.00000
C2281       C  0.36787595  0.36526604  0.78713221    -0.08600
C2282       C  0.39214497  0.38855661  0.80084119    -0.06000
C2283       C  0.39797677  0.39120631  0.83676643     0.00000
C2284       C  0.37754697  0.37168247  0.86003902    -0.08500
C2285       C  0.38264140  0.37226428  0.89916378     0.61900
H2286       H  0.33518041  0.33621250  0.86341488     0.12600
H2287       H  0.40887492  0.40284035  0.78354873     0.12600
C2288       C  0.36490255  0.35995717  0.74838227     0.62100
F2289       F  0.36204436  0.34808569  0.91566728    -0.23000
F2290       F  0.37388826  0.40439633  0.91217619    -0.20400
F2291       F  0.41656772  0.36479216  0.90747114    -0.20000
F2292       F  0.33109571  0.36371956  0.73768714    -0.20100
F2293       F  0.37590509  0.32694275  0.74022428    -0.20400
F2294       F  0.38493881  0.38337917  0.73025687    -0.23100
C2295       C  0.27982255  0.13280166  0.79857568    -0.05900
C2296       C  0.28769490  0.13420424  0.83394987     0.00000
C2297       C  0.27023212  0.15933688  0.85439654    -0.08600
C2298       C  0.24802886  0.18385684  0.83788273    -0.06000
C2299       C  0.24005183  0.18176216  0.80223014     0.00000
C2300       C  0.25390578  0.15326758  0.78371973    -0.08500
C2301       C  0.23792741  0.14041030  0.75053449     0.61900
H2302       H  0.29168841  0.11274374  0.78293446     0.12600
H2303       H  0.23711792  0.20491722  0.85262223     0.12600
C2304       C  0.27459689  0.15959455  0.89332329     0.62100
F2305       F  0.24052349  0.10474339  0.74781417    -0.23000
F2306       F  0.25484343  0.15491073  0.72284352    -0.20400
F2307       F  0.20312605  0.14825227  0.74998651    -0.20000
F2308       F  0.30812944  0.16861832  0.90176931    -0.20100
F2309       F  0.26731985  0.12714336  0.90647036    -0.20400
F2310       F  0.25257624  0.18282856  0.90902892    -0.23100
C2311       C  0.15711649  0.09967449  0.66695145    -0.05900
C2312       C  0.12368802  0.09717850  0.68038334     0.00000
C2313       C  0.10899310  0.12534695  0.69819828    -0.08600
C2314       C  0.12771036  0.15645452  0.70012696    -0.06000
C2315       C  0.16057002  0.15968222  0.68511076     0.00000
C2316       C  0.17611322  0.13051538  0.66889005    -0.08500
C2317       C  0.21158902  0.12996673  0.65196534     0.61900
H2318       H  0.16797507  0.07753682  0.65350046     0.12600
H2319       H  0.11661732  0.17864152  0.71309529     0.12600
C2320       C  0.07334716  0.12267393  0.71407001     0.62100
F2321       F  0.20801660  0.12067671  0.61755259    -0.23000
F2322       F  0.23189151  0.10547946  0.66821997    -0.20400
F2323       F  0.22883782  0.16118809  0.65317946    -0.20000
F2324       F  0.07005011  0.09195216  0.73202351    -0.20100
F2325       F  0.04866932  0.12381232  0.68821027    -0.20400
F2326       F  0.06736663  0.14934491  0.73713885    -0.23100
C2327       C  0.08108585  0.24783405  0.67752775    -0.05900
C2328       C  0.08841313  0.24612132  0.71327543     0.00000
C2329       C  0.06387511  0.22923799  0.73480114    -0.08600
C2330       C  0.03404446  0.21388258  0.71952898    -0.06000
C2331       C  0.02746319  0.21493955  0.68362640     0.00000
C2332       C  0.05100634  0.23356679  0.66246653    -0.08500
C2333       C  0.04404149  0.24050354  0.62432967     0.61900
H2334       H  0.09941134  0.26074346  0.66083230     0.12600
H2335       H  0.01553164  0.20053241  0.73568174     0.12600
C2336       C  0.06846613  0.22803642  0.77370648     0.62100
F2337       F  0.06424488  0.26735858  0.61204542    -0.23000
F2338       F  0.00988262  0.24974324  0.61936406    -0.20400
F2339       F  0.05155849  0.21152140  0.60478721    -0.20000
F2340       F  0.07177153  0.26132113  0.78643331    -0.20100
F2341       F  0.09762966  0.20917682  0.78196613    -0.20400
F2342       F  0.04050210  0.21275725  0.78995162    -0.23100
C2343       C  0.02942377  0.40410335  0.81307862    -0.05900
C2344       C  0.02322895  0.38181466  0.84079545     0.00000
C2345       C  0.03938299  0.34922516  0.84274764    -0.08600
C2346       C  0.06387690  0.34094740  0.81751677    -0.06000
C2347       C  0.07106122  0.36392292  0.79054154     0.00000
C2348       C  0.05338077  0.39562104  0.78766545    -0.08500
C2349       C  0.06081557  0.42071608  0.75856200     0.61900
H2350       H  0.01555296  0.42841130  0.81182909     0.12600
H2351       H  0.07883279  0.31743333  0.81961453     0.12600
C2352       C  0.03135565  0.32418270  0.87183469     0.62100
F2353       F  0.03828001  0.44849741  0.75878511    -0.23000
F2354       F  0.05742500  0.40378495  0.72716641    -0.20400
F2355       F  0.09406200  0.43345240  0.76187684    -0.20000
F2356       F  0.99731503  0.31353709  0.86984412    -0.20100
F2357       F  0.03699810  0.34017366  0.90339831    -0.20400
F2358       F  0.05168581  0.29494835  0.87022164    -0.23100
C2359       C  0.30516272  0.25078640  0.05263555    -0.05900
C2360       C  0.34036439  0.25981106  0.05326503     0.00000
C2361       C  0.35434066  0.28037592  0.07958558    -0.08600
C2362       C  0.33230984  0.29046337  0.10594617    -0.06000
C2363       C  0.29694839  0.28182225  0.10540232     0.00000
C2364       C  0.28270245  0.26194051  0.07840992    -0.08500
C2365       C  0.24521313  0.25056885  0.07607380     0.61900
H2366       H  0.29521154  0.23494114  0.03163228     0.12600
H2367       H  0.34285113  0.30434320  0.12797291     0.12600
C2368       C  0.39200554  0.29143626  0.07955796     0.62100
F2369       F  0.23163291  0.26101888  0.04469418    -0.23000
F2370       F  0.22474286  0.26410141  0.10199099    -0.20400
F2371       F  0.24360600  0.21486570  0.07786781    -0.20000
F2372       F  0.39905024  0.30978980  0.04973059    -0.20100
F2373       F  0.41302132  0.26257927  0.08076770    -0.20400
F2374       F  0.39994749  0.31233754  0.10763504    -0.23100
C2375       C  0.29801405  0.25311573  0.94132449    -0.05900
C2376       C  0.33373266  0.25260155  0.93434078     0.00000
C2377       C  0.34652165  0.26100742  0.90160191    -0.08600
C2378       C  0.32253087  0.26713550  0.87577597    -0.06000
C2379       C  0.28659388  0.26651779  0.88210146     0.00000
C2380       C  0.27395803  0.26128386  0.91572732    -0.08500
C2381       C  0.23589062  0.26335970  0.92443419     0.61900
H2382       H  0.28920701  0.24715311  0.96720342     0.12600
H2383       H  0.33201883  0.27254966  0.85002064     0.12600
C2384       C  0.38496106  0.26368009  0.89381892     0.62100
F2385       F  0.22959246  0.25579066  0.95882998    -0.23000
F2386       F  0.21790390  0.23988974  0.90446674    -0.20400
F2387       F  0.22372359  0.29635287  0.91809536    -0.20000
F2388       F  0.39916001  0.23097786  0.89182095    -0.20100
F2389       F  0.40161899  0.28239307  0.91946793    -0.20400
F2390       F  0.39101425  0.28022144  0.86269726    -0.23100
C2391       C  0.15630428  0.38247277  0.07614632    -0.05900
C2392       C  0.13548284  0.36063455  0.05617341     0.00000
C2393       C  0.13125681  0.32580153  0.06775967    -0.08600
C2394       C  0.14679096  0.31511321  0.09963598    -0.06000
C2395       C  0.16615642  0.33782858  0.12081615     0.00000
C2396       C  0.17205901  0.37212128  0.10749861    -0.08500
C2397       C  0.19483977  0.39880991  0.12551063     0.61900
H2398       H  0.16001904  0.40851441  0.06662236     0.12600
H2399       H  0.14312387  0.28889272  0.10867472     0.12600
C2400       C  0.10910053  0.30025847  0.04765350     0.62100
F2401       F  0.19830536  0.42875928  0.10632174    -0.23000
F2402       F  0.22771669  0.38573031  0.13019561    -0.20400
F2403       F  0.18042898  0.40798676  0.15687398    -0.20000
F2404       F  0.12495647  0.29174641  0.01683280    -0.20100
F2405       F  0.07709395  0.31460640  0.04092622    -0.20400
F2406       F  0.10395307  0.26989201  0.06584349    -0.23100
C2407       C  0.11993445  0.32823489  0.91915243    -0.05900
C2408       C  0.12120108  0.36457795  0.92479464     0.00000
C2409       C  0.13450905  0.38521851  0.89728474    -0.08600
C2410       C  0.14697014  0.36880961  0.86694915    -0.06000
C2411       C  0.14745124  0.33259069  0.86193763     0.00000
C2412       C  0.13226335  0.31201643  0.88820733    -0.08500
C2413       C  0.12962980  0.27312620  0.88391029     0.61900
H2414       H  0.10936757  0.31236391  0.93958744     0.12600
H2415       H  0.15678112  0.38477407  0.84635269     0.12600
C2416       C  0.13677607  0.42455929  0.89928043     0.62100
F2417       F  0.11476955  0.25753452  0.91243510    -0.23000
F2418       F  0.16205685  0.25936947  0.87933447    -0.20400
F2419       F  0.10985641  0.26514455  0.85519253    -0.20000
F2420       F  0.15028658  0.43502712  0.93075483    -0.20100
F2421       F  0.10443225  0.43876858  0.89444205    -0.20400
F2422       F  0.15784230  0.43804020  0.87381203    -0.23100
C2423       C  0.55136433  0.39146109  0.21892030    -0.05900
C2424       C  0.54634654  0.38968734  0.18287214     0.00000
C2425       C  0.56778267  0.36832946  0.16260821    -0.08600
C2426       C  0.59540221  0.35178131  0.17893471    -0.06000
C2427       C  0.60196446  0.35503147  0.21480824     0.00000
C2428       C  0.57914635  0.37486851  0.23537604    -0.08500
C2429       C  0.58369505  0.37861719  0.27419609     0.61900
H2430       H  0.53348093  0.40680337  0.23405019     0.12600
H2431       H  0.61253657  0.33638630  0.16316061     0.12600
C2432       C  0.56079195  0.36143497  0.12441489     0.62100
F2433       F  0.55710647  0.39736605  0.28907407    -0.23000
F2434       F  0.61426971  0.39580321  0.28130051    -0.20400
F2435       F  0.58417271  0.34624964  0.28937656    -0.20000
F2436       F  0.56830360  0.39043423  0.10509407    -0.20100
F2437       F  0.52652750  0.35235895  0.11956809    -0.20400
F2438       F  0.58081447  0.33465999  0.11175095    -0.23100
C2439       C  0.38197823  0.36809076  0.21759353    -0.05900
C2440       C  0.35700230  0.36729935  0.19125590     0.00000
C2441       C  0.36227560  0.38731453  0.16069495    -0.08600
C2442       C  0.39453796  0.40247269  0.15593041    -0.06000
C2443       C  0.41942441  0.40369016  0.18226525     0.00000
C2444       C  0.41172857  0.38865571  0.21477353    -0.08500
C2445       C  0.43292495  0.39459450  0.24731252     0.61900
H2446       H  0.37720279  0.35429570  0.24149475     0.12600
H2447       H  0.40061980  0.41314184  0.13088433     0.12600
C2448       C  0.33479503  0.39376053  0.13293018     0.62100
F2449       F  0.41113880  0.40309587  0.27435786    -0.23000
F2450       F  0.45627381  0.42148759  0.24385905    -0.20400
F2451       F  0.45044252  0.36462957  0.25573199    -0.20000
F2452       F  0.30775966  0.41223937  0.14701042    -0.20100
F2453       F  0.32251051  0.36307543  0.11945803    -0.20400
F2454       F  0.34730498  0.41302013  0.10550740    -0.23100
C2455       C  0.56765025  0.24337191  0.32235608    -0.05900
C2456       C  0.57136963  0.24242831  0.28623824     0.00000
C2457       C  0.54221185  0.23370094  0.26527754    -0.08600
C2458       C  0.51225982  0.22119080  0.28167359    -0.06000
C2459       C  0.50987348  0.21965244  0.31772134     0.00000
C2460       C  0.53661950  0.23351130  0.33832717    -0.08500
C2461       C  0.53173927  0.23865273  0.37686700     0.61900
H2462       H  0.58936980  0.25158474  0.33808731     0.12600
H2463       H  0.49038721  0.21231204  0.26653720     0.12600
C2464       C  0.54208358  0.23754392  0.22606739     0.62100
F2465       F  0.55721366  0.25937550  0.39050269    -0.23000
F2466       F  0.53254259  0.20719935  0.39360377    -0.20400
F2467       F  0.50048068  0.25470982  0.38331371    -0.20000
F2468       F  0.56776671  0.21770618  0.21120325    -0.20100
F2469       F  0.54716749  0.27192035  0.21757092    -0.20400
F2470       F  0.51092896  0.22724338  0.21164693    -0.23100
C2471       C  0.33407254  0.23437403  0.30223351    -0.05900
C2472       C  0.33216663  0.27079614  0.30778945     0.00000
C2473       C  0.35715034  0.28557013  0.33079720    -0.08600
C2474       C  0.38216194  0.26352951  0.34620166    -0.06000
C2475       C  0.38425923  0.22775456  0.33905573     0.00000
C2476       C  0.35927984  0.21287586  0.31702772    -0.08500
C2477       C  0.36010266  0.17459008  0.30754211     0.61900
H2478       H  0.31562576  0.22212052  0.28513361     0.12600
H2479       H  0.40200547  0.27490320  0.36252429     0.12600
C2480       C  0.36122470  0.32375081  0.33922960     0.62100
F2481       F  0.33392105  0.16553005  0.28480091    -0.23000
F2482       F  0.35597619  0.15481612  0.33690369    -0.20400
F2483       F  0.39127069  0.16647985  0.29207292    -0.20000
F2484       F  0.39416006  0.33430545  0.33017012    -0.20100
F2485       F  0.35719194  0.32849970  0.37446254    -0.20400
F2486       F  0.33828054  0.34493855  0.32241120    -0.23100
C2487       C  0.31938683  0.47390466  0.22132721    -0.05900
C2488       C  0.30608083  0.49021024  0.19160965     0.00000
C2489       C  0.27479103  0.47752939  0.17744820    -0.08600
C2490       C  0.25861961  0.44841622  0.19254628    -0.06000
C2491       C  0.27248370  0.43065188  0.22131006     0.00000
C2492       C  0.30321816  0.44444391  0.23654607    -0.08500
C2493       C  0.31887543  0.42873719  0.26886786     0.61900
H2494       H  0.34266992  0.48464124  0.23263757     0.12600
H2495       H  0.23502396  0.43875515  0.18109714     0.12600
C2496       C  0.25885054  0.49436306  0.14578139     0.62100
F2497       F  0.34874106  0.44576332  0.27896653    -0.23000
F2498       F  0.32707923  0.39448505  0.26308270    -0.20400
F2499       F  0.29557987  0.43084704  0.29579524    -0.20000
F2500       F  0.27977202  0.48857429  0.11740005    -0.20100
F2501       F  0.25531148  0.52960245  0.15093796    -0.20400
F2502       F  0.22643808  0.48119473  0.13854463    -0.23100
C2503       C  0.28201819  0.63156398  0.18807898    -0.05900
C2504       C  0.31490291  0.61963212  0.19692003     0.00000
C2505       C  0.33100258  0.63526981  0.22624077    -0.08600
C2506       C  0.31707745  0.66652827  0.24077722    -0.06000
C2507       C  0.28431653  0.67936117  0.23088372     0.00000
C2508       C  0.26505894  0.65793143  0.20715379    -0.08500
C2509       C  0.22577588  0.65700232  0.20701028     0.61900
H2510       H  0.26813384  0.61719585  0.16835804     0.12600
H2511       H  0.33146688  0.68060712  0.26031473     0.12600
C2512       C  0.36176265  0.61783531  0.24283868     0.62100
F2513       F  0.21269445  0.63241918  0.18431866    -0.23000
F2514       F  0.21196550  0.68817313  0.19764269    -0.20400
F2515       F  0.21448409  0.64822107  0.23964804    -0.20000
F2516       F  0.38942598  0.61824332  0.22030897    -0.20100
F2517       F  0.35371840  0.58392953  0.25082015    -0.20400
F2518       F  0.37105853  0.63384904  0.27339981    -0.23100
C2519       C  0.17104724  0.48877265  0.33301885    -0.05900
C2520       C  0.13653614  0.49878285  0.33622223     0.00000
C2521       C  0.11027386  0.48294338  0.31613594    -0.08600
C2522       C  0.11901039  0.45357739  0.29742686    -0.06000
C2523       C  0.15341139  0.44334521  0.29455197     0.00000
C2524       C  0.18022291  0.46215962  0.31065468    -0.08500
C2525       C  0.21792258  0.45513478  0.30336361     0.61900
H2526       H  0.19071877  0.50270303  0.34743717     0.12600
H2527       H  0.09904614  0.43919205  0.28383408     0.12600
C2528       C  0.07347255  0.49629378  0.31268057     0.62100
F2529       F  0.22479693  0.46374319  0.26944865    -0.23000
F2530       F  0.22520679  0.42067080  0.30846899    -0.20400
F2531       F  0.23957010  0.47447002  0.32446945    -0.20000
F2532       F  0.07027971  0.53074315  0.32181276    -0.20100
F2533       F  0.05173572  0.47658378  0.33302962    -0.20400
F2534       F  0.06283659  0.49355588  0.27859159    -0.23100
C2535       C  0.12266481  0.64748773  0.35081407    -0.05900
C2536       C  0.14763878  0.62215703  0.35718788     0.00000
C2537       C  0.18164782  0.62660198  0.34370167    -0.08600
C2538       C  0.18792508  0.65424892  0.32138173    -0.06000
C2539       C  0.16245397  0.67871371  0.31396362     0.00000
C2540       C  0.12923601  0.67610756  0.32993900    -0.08500
C2541       C  0.09972585  0.70197678  0.32454595     0.61900
H2542       H  0.09681548  0.64364626  0.36049496     0.12600
H2543       H  0.21347629  0.65725060  0.31030413     0.12600
C2544       C  0.21203659  0.60277113  0.35104698     0.62100
F2545       F  0.09356997  0.70688806  0.28979515    -0.23000
F2546       F  0.10758851  0.73337385  0.33973306    -0.20400
F2547       F  0.06901486  0.69082632  0.33912275    -0.20000
F2548       F  0.21915283  0.58316399  0.32192383    -0.20100
F2549       F  0.20610397  0.58108088  0.37877569    -0.20400
F2550       F  0.24109848  0.62219418  0.35863895    -0.23100
C2551       C  0.14446064  0.36264182  0.41707903    -0.05900
C2552       C  0.15894574  0.39302252  0.43024573     0.00000
C2553       C  0.18774383  0.40743422  0.41261013    -0.08600
C2554       C  0.20084978  0.39080704  0.38226673    -0.06000
C2555       C  0.18591321  0.36031015  0.36841953     0.00000
C2556       C  0.15713653  0.34585909  0.38706909    -0.08500
C2557       C  0.13972137  0.31209984  0.37667375     0.61900
H2558       H  0.12278042  0.35189465  0.43110154     0.12600
H2559       H  0.22301168  0.40166225  0.36925521     0.12600
C2560       C  0.20444605  0.44032125  0.42602553     0.62100
F2561       F  0.11569491  0.30126912  0.40085017    -0.23000
F2562       F  0.16422752  0.28634998  0.37392122    -0.20400
F2563       F  0.12243487  0.31611638  0.34565393    -0.20000
F2564       F  0.21918790  0.43414264  0.45800421    -0.20100
F2565       F  0.17978639  0.46598540  0.42933162    -0.20400
F2566       F  0.22995017  0.45222614  0.40398287    -0.23100
C2567       C  0.19160690  0.38964112  0.56803355    -0.05900
C2568       C  0.15571599  0.38963735  0.56106424     0.00000
C2569       C  0.13356746  0.37367009  0.58573017    -0.08600
C2570       C  0.14770540  0.36125298  0.61692046    -0.06000
C2571       C  0.18349584  0.36072134  0.62393561     0.00000
C2572       C  0.20597929  0.37473922  0.59849165    -0.08500
C2573       C  0.24489448  0.37287412  0.60254687     0.61900
H2574       H  0.20853923  0.40124225  0.54906488     0.12600
H2575       H  0.13015550  0.35082302  0.63603998     0.12600
C2576       C  0.09507808  0.36775706  0.57979131     0.62100
F2577       F  0.26190895  0.38516792  0.57360862    -0.23000
F2578       F  0.25480120  0.33888746  0.60747946    -0.20400
F2579       F  0.25527322  0.39254880  0.63056242    -0.20000
F2580       F  0.08768727  0.36207604  0.54524003    -0.20100
F2581       F  0.07669940  0.39599346  0.59174234    -0.20400
F2582       F  0.08371437  0.33881659  0.59750943    -0.23100
C2583       C  0.31605695  0.25875766  0.42460322    -0.05900
C2584       C  0.32352658  0.22346154  0.43055466     0.00000
C2585       C  0.30737436  0.19777762  0.40973664    -0.08600
C2586       C  0.28603085  0.20876762  0.38303538    -0.06000
C2587       C  0.27590861  0.24336683  0.37925502     0.00000
C2588       C  0.29053885  0.26899983  0.40081688    -0.08500
C2589       C  0.27871315  0.30640127  0.39952520     0.61900
H2590       H  0.32795339  0.27796976  0.44128293     0.12600
H2591       H  0.27610199  0.18974430  0.36520052     0.12600
C2592       C  0.30970654  0.15889593  0.41652357     0.62100
F2593       F  0.24419143  0.30826193  0.40851573    -0.23000
F2594       F  0.28295152  0.31944218  0.36662040    -0.20400
F2595       F  0.29713545  0.32717848  0.42225527    -0.20000
F2596       F  0.30164334  0.15175418  0.45059225    -0.20100
F2597       F  0.34236686  0.14689018  0.40896518    -0.20400
F2598       F  0.28681340  0.14017207  0.39625383    -0.23100
C2599       C  0.26877182  0.21249158  0.55163881    -0.05900
C2600       C  0.30288454  0.22469056  0.55260508     0.00000
C2601       C  0.31250556  0.25156270  0.57527689    -0.08600
C2602       C  0.28874949  0.26198049  0.60031668    -0.06000
C2603       C  0.25544288  0.24788809  0.60103416     0.00000
C2604       C  0.24424734  0.22466223  0.57517051    -0.08500
C2605       C  0.20685982  0.21297144  0.57267218     0.61900
H2606       H  0.26154601  0.19370238  0.53203804     0.12600
H2607       H  0.29634024  0.28016900  0.62033693     0.12600
C2608       C  0.34759129  0.26875695  0.57302782     0.62100
F2609       F  0.20142204  0.19126314  0.54462295    -0.23000
F2610       F  0.18582199  0.24159349  0.56884284    -0.20400
F2611       F  0.19734064  0.19549813  0.60223604    -0.20000
F2612       F  0.35353681  0.28029553  0.53976097    -0.20100
F2613       F  0.37299514  0.24536600  0.58210438    -0.20400
F2614       F  0.34953511  0.29715044  0.59465174    -0.23100
loop_ 
_geom_bond_atom_site_label_1 
_geom_bond_atom_site_label_2 
_geom_bond_distance 
_geom_bond_site_symmetry_2 
_ccdc_geom_bond_type 
C1            C2   1.383       .  A
C1            C6   1.395       .  A
C1         C2600   1.451       .  S
C2            C3   1.391       .  A
C2            H7   1.086       .  S
C3            C4   1.404       .  A
C3         C2584   1.476       .  S
C4            C5   1.406       .  A
C4            H8   1.079       .  S
C5            C6   1.401       .  A
C5         C1007   1.470       .  S
C6            H9   1.084       .  S
C10          C11   1.422       .  A
C10          C15   1.413       .  A
C10        C2552   1.516       .  S
C11          C12   1.422       .  A
C11          H16   1.083       .  S
C12          C13   1.414       .  A
C12         C905   1.517       .  S
C13          C14   1.416       .  A
C13          H17   1.080       .  S
C14          C15   1.415       .  A
C14        C2568   1.519       .  S
C15          H18   1.083       .  S
C19          C20   1.383       .  A
C19          C24   1.384       .  A
C19        C2520   1.441       .  S
C20          C21   1.390       .  A
C20          H25   1.081       .  S
C21          C22   1.415       .  A
C21        C2536   1.482       .  S
C22          C23   1.407       .  A
C22          H26   1.081       .  S
C23          C24   1.388       .  A
C23         C928   1.462       .  S
C24          H27   1.084       .  S
C28          C29   1.417       .  A
C28          C33   1.408       .  A
C28        C2488   1.511       .  S
C29          C30   1.421       .  A
C29          H34   1.083       .  S
C30          C31   1.432       .  A
C30         C962   1.531       .  S
C31          C32   1.429       .  A
C31          H35   1.083       .  S
C32          C33   1.410       .  A
C32        C2504   1.524       .  S
C33          H36   1.084       .  S
C37          C38   1.398       .  A
C37          C42   1.393       .  A
C37        C2459   1.476       .  S
C38          C39   1.403       .  A
C38          H43   1.084       .  S
C39          C40   1.422       .  A
C39        C1030   1.499       .  S
C40          C41   1.424       .  A
C40          H44   1.080       .  S
C41          C42   1.400       .  A
C41        C2475   1.499       .  S
C42          H45   1.085       .  S
C46          C47   1.402       .  A
C46          C51   1.395       .  A
C46        C2443   1.482       .  S
C47          C48   1.399       .  A
C47          H52   1.083       .  S
C48          C49   1.403       .  A
C48         C950   1.479       .  S
C49          C50   1.410       .  A
C49          H53   1.079       .  S
C50          C51   1.396       .  A
C50        C2424   1.475       .  S
C51          H54   1.082       .  S
C55          C56   1.426       .  A
C55          C60   1.418       .  A
C55        C2408   1.536       .  S
C56          C57   1.421       .  A
C56          H61   1.075       .  S
C57          C58   1.419   1_556  A
C57         C618   1.531   1_556  S
C58          C59   1.427       .  A
C58          H62   1.083       .  S
C59          C60   1.416   1_554  A
C59        C2392   1.527       .  S
C60          H63   1.081       .  S
C64          C65   1.394       .  A
C64          C69   1.384       .  A
C64        C2376   1.447       .  S
C65          C66   1.397       .  A
C65          H70   1.083       .  S
C66          C67   1.394   1_556  A
C66         C651   1.448       .  S
C67          C68   1.390       .  A
C67          H71   1.084       .  S
C68          C69   1.381   1_554  A
C68        C2360   1.437       .  S
C69          H72   1.087       .  S
O73         C100   1.265       .  A
O73         Mn99   2.074       .  S
C74        C2603   1.444       .  S
C74         O107   1.262       .  A
C74         O104   1.263       .  A
O75         Mn82   2.193       .  S
O75         Mn93   2.104       .  S
O75         Mn97   2.191       .  S
O75         Mn99   2.112       .  S
O76          C86   1.269       .  A
O76        Mn110   2.094       .  S
O77         C100   1.261       .  A
O77         Mn93   2.050       .  S
O78         C105   1.266       .  A
O78         Mn97   2.190       .  S
O79        Mn110   1.939       .  S
O79         Mn99   1.955       .  S
O79          C95   1.220       .  S
C80        C2299   1.518       .  S
C80          O83   1.271       .  A
C80         O106   1.218       .  S
O81        Mn101   2.107       .  S
O81         Mn82   2.173       .  S
O81        Mn115   2.099       .  S
O81         Mn97   2.158       .  S
Mn82        O111   2.213       .  S
Mn82         O87   2.216       .  S
Mn82        O114   2.166       .  S
Mn82         O88   2.196       .  S
O83         Mn97   2.187       .  S
O84          C86   1.264       .  A
O84         Mn91   2.065       .  S
C85        C2264   1.542       .  S
C85         O111   1.270       .  A
C85          O98   1.209       .  S
C86        C2315   1.468       .  S
O87         C112   1.272       .  A
O88         Mn91   2.099       .  S
O88        Mn110   2.139       .  S
O88         Mn97   2.188       .  S
O89         Mn93   1.931       .  S
O89        Mn115   1.921       .  S
O89         C112   1.205       .  S
C90        C2379   1.455       .  S
C90         O116   1.264       .  A
C90          O92   1.269       .  A
Mn91        O104   2.060       .  S
Mn91        O106   1.972       .  S
Mn91         O98   1.938       .  S
O92        Mn115   2.073       .  S
Mn93        O109   2.096       .  S
Mn93        O103   1.955       .  S
O94          C96   1.270       .  A
O94         Mn99   2.080       .  S
C95        C2328   1.519       .  S
C95         O113   1.263       .  A
C96        C2251   1.475       .  S
C96         O109   1.272       .  A
Mn97        O113   2.158       .  S
O98        Mn101   1.931       .  S
Mn99        O117   1.947       .  S
C100       C2347   1.442       .  S
Mn101       O108   2.101       .  S
Mn101       O116   2.030       .  S
Mn101       O106   1.954       .  S
C102       C2280   1.455       .  S
C102        O108   1.273       .  A
C102        O118   1.260       .  A
O103       Mn115   1.955       .  S
O103        C105   1.215       .  S
C105       C2411   1.531       .  S
O107       Mn110   2.062       .  S
Mn110       O117   1.956       .  S
C112       C2232   1.534       .  S
O114        C119   1.268       .  A
Mn115       O118   2.030       .  S
O117        C119   1.223       .  S
C119       C2571   1.519       .  S
C120        C121   1.397       .  A
C120        C125   1.388       .  A
C120       C2219   1.466   1_545  S
C121        C122   1.404       .  A
C121        H126   1.083   1_545  S
C122        C123   1.408       .  A
C122        C573   1.475       .  S
C123        C124   1.406       .  A
C123        H127   1.083       .  S
C124        C125   1.388       .  A
C124       C2200   1.464       .  S
C125        H128   1.086       .  S
C129        C130   1.414       .  A
C129        C134   1.420       .  A
C129       C2187   1.519   1_545  S
C130        C131   1.417       .  A
C130        H135   1.083       .  S
C131        C132   1.423       .  A
C131       C2171   1.523       .  S
C132        C133   1.420       .  A
C132        H136   1.082       .  S
C133        C134   1.420       .  A
C133        C663   1.525       .  S
C134        H137   1.083       .  S
O138        C165   1.272       .  A
O138       Mn164   2.112       .  S
C139       C2539   1.469       .  S
C139        O172   1.275       .  A
C139        O169   1.250       .  A
O140       Mn147   2.192       .  S
O140       Mn158   2.123       .  S
O140       Mn162   2.194       .  S
O140       Mn164   2.101       .  S
O141        C151   1.251       .  A
O141       Mn175   2.002       .  S
O142        C165   1.274       .  A
O142       Mn158   2.100       .  S
O143        C170   1.267       .  A
O143       Mn162   2.158       .  S
O144       Mn175   1.940       .  S
O144       Mn164   1.928       .  S
O144        C160   1.207       .  S
C145       C2104   1.554       .  S
C145        O148   1.277       .  A
C145        O171   1.208       .  S
O146       Mn166   2.088       .  S
O146       Mn147   2.189       .  S
O146       Mn180   2.139       .  S
O146       Mn162   2.182       .  S
Mn147       O176   2.193       .  S
Mn147       O152   2.202       .  S
Mn147       O179   2.231       .  S
Mn147       O153   2.189       .  S
O148       Mn162   2.227       .  S
O149        C151   1.281       .  A
O149       Mn156   2.133       .  S
C150       C2075   1.533       .  S
C150        O176   1.274       .  A
C150        O163   1.220       .  S
C151       C2120   1.473       .  S
O152        C177   1.274       .  A
O153       Mn156   2.127       .  S
O153       Mn175   2.073       .  S
O153       Mn162   2.156       .  S
O154       Mn158   1.963       .  S
O154       Mn180   1.938       .  S
O154        C177   1.218       .  S
C155       C2216   1.459       .  S
C155        O181   1.262       .  A
C155        O157   1.261       .  A
Mn156       O169   2.021       .  S
Mn156       O171   1.950       .  S
Mn156       O163   1.950       .  S
O157       Mn180   2.078       .  S
Mn158       O174   2.102       .  S
Mn158       O168   1.974       .  S
O159        C161   1.260       .  A
O159       Mn164   2.034       .  S
C160       C2139   1.519       .  S
C160        O178   1.274       .  A
C161       C2059   1.454       .  S
C161        O174   1.269       .  A
Mn162       O178   2.201       .  S
O163       Mn166   1.970       .  S
Mn164       O182   1.961       .  S
C165       C2155   1.503       .  S
Mn166       O173   2.078       .  S
Mn166       O181   2.092       .  S
Mn166       O171   1.965       .  S
C167       C2088   1.468       .  S
C167        O173   1.268       .  A
C167        O183   1.273       .  A
O168       Mn180   1.967       .  S
O168        C170   1.229       .  S
C170       C2184   1.533       .  S
O172       Mn175   2.107       .  S
Mn175       O182   1.943       .  S
C177       C2040   1.539       .  S
O179        C184   1.271       .  A
Mn180       O183   2.104       .  S
O182        C184   1.209       .  S
C184       C2507   1.545       .  S
C185        C186   1.398       .  A
C185        C190   1.412       .  A
C185       C2024   1.503       .  S
C186        C187   1.405   1_655  A
C186        H191   1.075       .  S
C187        C188   1.418       .  A
C187       C2008   1.503       .  S
C188        C189   1.412   1_455  A
C188        H192   1.076       .  S
C189        C190   1.405       .  A
C189        C596   1.499       .  S
C190        H193   1.083       .  S
C194        C195   1.392       .  A
C194        C199   1.386       .  A
C194       C1976   1.459   1_655  S
C195        C196   1.401       .  A
C195        H200   1.084   1_655  S
C196        C197   1.417       .  A
C196        C606   1.487       .  S
C197        C198   1.420       .  A
C197        H201   1.081       .  S
C198        C199   1.396       .  A
C198       C1995   1.487       .  S
C199        H202   1.085       .  S
O203        C230   1.274       .  A
O203       Mn229   2.103       .  S
C204       C2456   1.484       .  S
C204        O237   1.274       .  A
C204        O234   1.263       .  A
O205       Mn212   2.193       .  S
O205       Mn223   2.086       .  S
O205       Mn227   2.184       .  S
O205       Mn229   2.108       .  S
O206        C216   1.263       .  A
O206       Mn240   2.064       .  S
O207        C230   1.270       .  A
O207       Mn223   2.081       .  S
O208        C235   1.257       .  A
O208       Mn227   2.170       .  S
O209       Mn240   1.989       .  S
O209       Mn229   1.965       .  S
O209        C225   1.223       .  S
C210       C1963   1.499       .  S
C210        O213   1.258       .  A
C210        O236   1.211       .  S
O211       Mn231   2.103       .  S
O211       Mn212   2.198       .  S
O211       Mn245   2.077       .  S
O211       Mn227   2.179       .  S
Mn212       O241   2.128       .  S
Mn212       O217   2.176       .  S
Mn212       O244   2.144       .  S
Mn212       O218   2.186       .  S
O213       Mn227   2.137       .  S
O214        C216   1.270       .  A
O214       Mn221   2.097       .  S
C215       C2427   1.486       .  S
C215        O241   1.255       .  A
C215        O228   1.209       .  S
C216       C1915   1.464       .  S
O217        C242   1.255       .  A
O218       Mn221   2.113       .  S
O218       Mn240   2.103       .  S
O218       Mn227   2.181       .  S
O219       Mn223   1.969       .  S
O219       Mn245   1.967       .  S
O219        C242   1.216       .  A
C220       C1947   1.469       .  S
C220        O246   1.270       .  A
C220        O222   1.267       .  A
Mn221       O234   2.068       .  S
Mn221       O236   1.943       .  S
Mn221       O228   1.934       .  S
O222       Mn245   2.081       .  S
Mn223       O239   2.103       .  S
Mn223       O233   1.965       .  S
O224        C226   1.268       .  A
O224       Mn229   2.090       .  S
C225       C1928   1.483       .  S
C225        O243   1.258       .  A
C226       C1883   1.497       .  S
C226        O239   1.273       .  A
Mn227       O243   2.115       .  S
O228       Mn231   1.924       .  S
Mn229       O247   1.947       .  S
C230       C2027   1.479       .  S
Mn231       O238   2.115       .  S
Mn231       O246   2.091       .  S
Mn231       O236   1.970       .  S
C232       C1848   1.484       .  S
C232        O238   1.275       .  A
C232        O248   1.265       .  A
O233       Mn245   1.945       .  S
O233        C235   1.203       .  S
C235       C1992   1.498       .  S
O237       Mn240   2.112       .  S
Mn240       O247   1.933       .  S
C242       C1864   1.487       .  S
O244        C249   1.258       .  A
Mn245       O248   2.070       .  S
O247        C249   1.211       .  S
C249       C1896   1.507       .  S
C250        C251   1.395   1_556  A
C250        C255   1.402       .  A
C250       C1832   1.490       .  S
C251        C252   1.404       .  A
C251        H256   1.060       .  S
C252        C253   1.422       .  A
C252       C1960   1.490       .  S
C253        C254   1.409       .  A
C253        H257   1.084       .  S
C254        C255   1.393   1_554  A
C254        C652   1.486       .  S
C255        H258   1.083       .  S
C259        C260   1.399       .  A
C259        C264   1.390   1_554  A
C259       C1944   1.472       .  S
C260        C261   1.409   1_554  A
C260        H265   1.084       .  S
C261        C262   1.430       .  A
C261        C629   1.513       .  S
C262        C263   1.431       .  A
C262        H266   1.080       .  S
C263        C264   1.395       .  A
C263       C1816   1.503       .  S
C264        H267   1.085       .  S
C268        C269   1.413       .  A
C268        C273   1.430       .  A
C268       C1800   1.529       .  S
C269        C270   1.412       .  A
C269        H274   1.084       .  S
C270        C271   1.414       .  A
C270       C2331   1.514   1_655  S
C271        C272   1.412       .  A
C271        H275   1.079   1_655  S
C272        C273   1.426       .  A
C272        C597   1.523       .  S
C273        H276   1.079       .  S
C277        C278   1.394   1_655  A
C277        C282   1.383       .  A
C277       C2344   1.450   1_655  S
C278        C279   1.397   1_455  A
C278        H283   1.084       .  S
C279        C280   1.402       .  A
C279        C641   1.460       .  S
C280        C281   1.398       .  A
C280        H284   1.080       .  S
C281        C282   1.392       .  A
C281       C1784   1.469       .  S
C282        H285   1.085       .  S
O286        C313   1.266       .  A
O286       Mn312   2.052       .  S
C287       C1688   1.441       .  S
C287        O320   1.263       .  A
C287        O317   1.265       .  A
O288       Mn295   2.179       .  S
O288       Mn306   2.083       .  S
O288       Mn310   2.166       .  S
O288       Mn312   2.091       .  S
O289        C299   1.273       .  A
O289       Mn323   2.086       .  S
O290        C313   1.270       .  A
O290       Mn306   2.080       .  S
O291        C318   1.266       .  A
O291       Mn310   2.194       .  S
O292       Mn323   1.950       .  S
O292       Mn312   1.933       .  S
O292        C308   1.208       .  S
C293       C1768   1.527       .  S
C293        O296   1.265       .  A
C293        O319   1.222       .  S
O294       Mn314   2.107       .  S
O294       Mn295   2.176       .  S
O294       Mn328   2.106       .  S
O294       Mn310   2.189       .  S
Mn295       O324   2.182       .  S
Mn295       O300   2.191       .  S
Mn295       O327   2.195       .  S
Mn295       O301   2.190       .  S
O296       Mn310   2.165       .  S
O297        C299   1.264       .  A
O297       Mn304   2.061       .  S
C298       C1704   1.525       .  S
C298        O324   1.270       .  A
C298        O311   1.214       .  S
C299       C1835   1.480       .  S
O300        C325   1.272       .  A
O301       Mn304   2.119       .  S
O301       Mn323   2.104       .  S
O301       Mn310   2.180       .  S
O302       Mn306   1.934       .  S
O302       Mn328   1.934       .  S
O302        C325   1.208       .  S
C303       C1752   1.453       .  S
C303        O329   1.266       .  A
C303        O305   1.260       .  A
Mn304       O317   2.072       .  S
Mn304       O319   1.955       .  S
Mn304       O311   1.942       .  S
O305       Mn328   2.040       .  S
Mn306       O322   2.064       .  S
Mn306       O316   1.964       .  S
O307        C309   1.270       .  A
O307       Mn312   2.089       .  S
C308       C1819   1.525       .  S
C308        O326   1.274       .  A
C309       C1659   1.456       .  S
C309        O322   1.260       .  A
Mn310       O326   2.202       .  S
O311       Mn314   1.948       .  S
Mn312       O330   1.942       .  S
C313       C1787   1.459       .  S
Mn314       O321   2.096       .  S
Mn314       O329   2.081       .  S
Mn314       O319   1.966       .  S
C315       C1723   1.462       .  S
C315        O321   1.272       .  A
C315        O331   1.269       .  A
O316       Mn328   1.944       .  S
O316        C318   1.217       .  S
C318       C1803   1.549       .  S
O320       Mn323   2.052       .  S
Mn323       O330   1.942       .  S
C325       C1736   1.518       .  S
O327        C332   1.265       .  A
Mn328       O331   2.082       .  S
O330        C332   1.211       .  S
C332       C1672   1.526       .  S
C333        C334   1.399       .  A
C333        C338   1.393   1_556  A
C333       C1640   1.482       .  S
C334        C335   1.405   1_556  A
C334        H339   1.084       .  S
C335        C336   1.423       .  A
C335        C617   1.504       .  S
C336        C337   1.427       .  A
C336        H340   1.083       .  S
C337        C338   1.402       .  A
C337       C2136   1.494       .  S
C338        H341   1.084       .  S
C342        C343   1.397       .  A
C342        C347   1.400   1_554  A
C342       C2152   1.488       .  S
C343        C344   1.400   1_554  A
C343        H348   1.081       .  S
C344        C345   1.402       .  A
C344        C686   1.477       .  S
C345        C346   1.411       .  A
C345        H349   1.081       .  S
C346        C347   1.407       .  A
C346       C1624   1.484       .  S
C347        H350   1.083       .  S
C351        C352   1.403       .  A
C351        C356   1.422       .  A
C351       C1611   1.492   1_545  S
C352        C353   1.397       .  A
C352        H357   1.084       .  S
C353        C354   1.394       .  A
C353       C2312   1.468       .  S
C354        C355   1.400       .  A
C354        H358   1.084       .  S
C355        C356   1.409       .  A
C355        C572   1.488       .  S
C356        H359   1.084   1_545  S
C360        C361   1.395       .  A
C360        C365   1.394       .  A
C360       C1592   1.495       .  S
C361        C362   1.409       .  A
C361        H366   1.080       .  S
C362        C363   1.428       .  A
C362        C674   1.509       .  S
C363        C364   1.430       .  A
C363        H367   1.082       .  S
C364        C365   1.409       .  A
C364       C2296   1.513       .  S
C365        H368   1.084       .  S
O369        C396   1.271       .  A
O369       Mn395   2.090       .  S
C370       C1643   1.495       .  S
C370        O403   1.268       .  A
C370        O400   1.278       .  A
O371       Mn378   2.169       .  S
O371       Mn389   2.096       .  S
O371       Mn393   2.180       .  S
O371       Mn395   2.088       .  S
O372        C382   1.270       .  A
O372       Mn406   2.102       .  S
O373        C396   1.270       .  A
O373       Mn389   2.101       .  S
O374        C401   1.268       .  A
O374       Mn393   2.166       .  S
O375       Mn406   1.937       .  S
O375       Mn395   1.963       .  S
O375        C391   1.215       .  S
C376       C1464   1.503       .  S
C376        O379   1.265       .  A
C376        O402   1.215       .  S
O377       Mn397   2.105       .  S
O377       Mn378   2.163       .  S
O377       Mn411   2.092       .  S
O377       Mn393   2.153       .  S
Mn378       O407   2.133       .  S
Mn378       O383   2.173       .  S
Mn378       O410   2.142       .  S
Mn378       O384   2.193       .  S
O379       Mn393   2.159       .  S
O380        C382   1.270       .  A
O380       Mn387   2.104       .  S
C381       C1563   1.490       .  S
C381        O407   1.258       .  A
C381        O394   1.209       .  S
C382       C1480   1.486       .  S
O383        C408   1.265       .  A
O384       Mn387   2.103       .  S
O384       Mn406   2.109       .  S
O384       Mn393   2.197       .  S
O385       Mn389   1.969       .  S
O385       Mn411   1.942       .  S
O385        C408   1.202       .  S
C386       C1544   1.465       .  S
C386        O412   1.273       .  A
C386        O388   1.267       .  A
Mn387       O400   2.122       .  S
Mn387       O402   1.974       .  S
Mn387       O394   1.954       .  S
O388       Mn411   2.073       .  S
Mn389       O405   2.101       .  S
Mn389       O399   1.940       .  S
O390        C392   1.271       .  A
O390       Mn395   2.098       .  S
C391       C1496   1.507       .  S
C391        O409   1.254       .  A
C392       C1595   1.481       .  S
C392        O405   1.273       .  A
Mn393       O409   2.143       .  S
O394       Mn397   1.946       .  S
Mn395       O413   1.942       .  S
C396       C1515   1.481       .  S
Mn397       O404   2.086       .  S
Mn397       O412   2.088       .  S
Mn397       O402   1.955       .  S
C398       C1576   1.478       .  S
C398        O404   1.265       .  A
C398        O414   1.271       .  A
O399       Mn411   1.969       .  S
O399        C401   1.203       .  S
C401       C1528   1.514       .  S
O403       Mn406   2.081       .  S
Mn406       O413   1.945       .  S
C408       C1608   1.517       .  S
O410        C415   1.259       .  A
Mn411       O414   2.113       .  S
O413        C415   1.214       .  S
C415       C1627   1.488       .  S
C416        C417   1.391       .  A
C416        C421   1.378       .  A
C416       C1448   1.445       .  S
C417        C418   1.391       .  A
C417        H422   1.085       .  S
C418        C419   1.415   1_655  A
C418        C607   1.476       .  S
C419        C420   1.425       .  A
C419        H423   1.083       .  S
C420        C421   1.387   1_455  A
C420       C2123   1.491       .  S
C421        H424   1.075       .  S
C425        C426   1.419       .  A
C425        C430   1.426       .  A
C425       C1432   1.527       .  S
C426        C427   1.418   1_655  A
C426        H431   1.080       .  S
C427        C428   1.434       .  A
C427       C2107   1.540       .  S
C428        C429   1.420   1_455  A
C428        H432   1.082       .  S
C429        C430   1.417       .  A
C429        C561   1.534       .  S
C430        H433   1.083       .  S
C434        C435   1.380       .  A
C434        C439   1.388       .  A
C434       C1416   1.450       .  S
C435        C436   1.395       .  A
C435        H440   1.086       .  S
C436        C437   1.410       .  A
C436       C1931   1.473       .  S
C437        C438   1.416       .  A
C437        H441   1.083       .  S
C438        C439   1.398       .  A
C438        C584   1.472       .  S
C439        H442   1.084       .  S
C443        C444   1.401   1_565  A
C443        C448   1.420   1_565  A
C443       C1403   1.496       .  S
C444        C445   1.389       .  A
C444        H449   1.085       .  S
C445        C446   1.392       .  A
C445       C1912   1.464       .  S
C446        C447   1.399       .  A
C446        H450   1.084       .  S
C447        C448   1.415       .  A
C447        C662   1.484       .  S
C448        H451   1.077   1_545  S
O452        C479   1.252       .  A
O452       Mn478   2.018       .  S
C453       C1451   1.463       .  S
C453        O486   1.265       .  A
C453        O483   1.263       .  A
O454       Mn461   2.202       .  S
O454       Mn472   2.104       .  S
O454       Mn476   2.184       .  S
O454       Mn478   2.097       .  S
O455        C465   1.267       .  A
O455       Mn489   2.066       .  S
O456        C479   1.268       .  A
O456       Mn472   2.060       .  S
O457        C484   1.268       .  A
O457       Mn476   2.188       .  S
O458       Mn489   1.948       .  S
O458       Mn478   1.943       .  S
O458        C474   1.217       .  S
C459       C1352   1.532       .  S
C459        O462   1.270       .  A
C459        O485   1.227       .  S
O460       Mn480   2.100       .  S
O460       Mn461   2.182       .  S
O460       Mn494   2.122       .  S
O460       Mn476   2.177       .  S
Mn461       O490   2.201       .  S
Mn461       O466   2.196       .  S
Mn461       O493   2.185       .  S
Mn461       O467   2.192       .  S
O462       Mn476   2.174       .  S
O463        C465   1.270       .  A
O463       Mn470   2.082       .  S
C464       C1435   1.538       .  S
C464        O490   1.272       .  A
C464        O477   1.213       .  S
C465       C1272   1.459       .  S
O466        C491   1.269       .  A
O467       Mn470   2.127       .  S
O467       Mn489   2.106       .  S
O467       Mn476   2.176       .  S
O468       Mn472   1.959       .  S
O468       Mn494   1.966       .  S
O468        C491   1.227       .  A
C469       C1336   1.447       .  S
C469        O495   1.262       .  A
C469        O471   1.259       .  A
Mn470       O483   2.072       .  S
Mn470       O485   1.983       .  S
Mn470       O477   1.929       .  S
O471       Mn494   2.044       .  S
Mn472       O488   2.058       .  S
Mn472       O482   1.979       .  S
O473        C475   1.267       .  A
O473       Mn478   2.091       .  S
C474       C1291   1.509       .  S
C474        O492   1.266       .  A
C475       C1368   1.457       .  S
C475        O488   1.261       .  A
Mn476       O492   2.172       .  S
O477       Mn480   1.932       .  S
Mn478       O496   1.913       .  S
C479       C1307   1.456       .  S
Mn480       O487   2.089       .  S
Mn480       O495   2.057       .  S
Mn480       O485   2.004       .  S
C481       C1419   1.449       .  S
C481        O487   1.271       .  A
C481        O497   1.265       .  A
O482       Mn494   1.976       .  S
O482        C484   1.214       .  S
C484       C1320   1.533       .  S
O486       Mn489   2.046       .  S
Mn489       O496   1.938       .  S
C491       C1400   1.508       .  S
O493        C498   1.262       .  A
Mn494       O497   2.064       .  S
O496        C498   1.212       .  S
C498       C1387   1.526       .  S
C499        C500   1.390   1_554  A
C499        C504   1.399       .  A
C499       C1371   1.464       .  S
C500        C501   1.391       .  A
C500        H505   1.086       .  S
C501        C502   1.389       .  A
C501       C1256   1.462       .  S
C502        C503   1.399       .  A
C502        H506   1.081       .  S
C503        C504   1.403   1_556  A
C503        C687   1.461       .  S
C504        H507   1.081       .  S
C508        C509   1.422       .  A
C508        C513   1.408       .  A
C508       C1243   1.510       .  S
C509        C510   1.423       .  A
C509        H514   1.082       .  S
C510        C511   1.421   1_556  A
C510        C628   1.528       .  S
C511        C512   1.424       .  A
C511        H515   1.079       .  S
C512        C513   1.406   1_554  A
C512       C1384   1.516       .  S
C513        H516   1.084       .  S
C517        C518   1.391       .  A
C517        C522   1.393       .  A
C517       C1755   1.468       .  S
C518        C519   1.388       .  A
C518        H523   1.086       .  S
C519        C520   1.399       .  A
C519       C1227   1.457   1_545  S
C520        C521   1.401       .  A
C520        H524   1.083   1_545  S
C521        C522   1.402       .  A
C521        C583   1.465       .  S
C522        H525   1.081       .  S
C526        C527   1.413       .  A
C526        C531   1.420       .  A
C526       C1771   1.516       .  S
C527        C528   1.413       .  A
C527        H532   1.082       .  S
C528        C529   1.428       .  A
C528       C1208   1.526   1_545  S
C529        C530   1.424       .  A
C529        H533   1.083   1_545  S
C530        C531   1.421       .  A
C530        C673   1.529       .  S
C531        H534   1.083       .  S
C535        C536   1.401       .  A
C535        C540   1.400       .  A
C535       C1579   1.486   1_655  S
C536        C537   1.404       .  A
C536        H541   1.084   1_655  S
C537        C538   1.425       .  A
C537        C562   1.510       .  S
C538        C539   1.433       .  A
C538        H542   1.076       .  S
C539        C540   1.409       .  A
C539       C1192   1.525       .  S
C540        H543   1.084       .  S
C544        C545   1.393       .  A
C544        C549   1.406       .  A
C544       C1176   1.489       .  S
C545        C546   1.397   1_655  A
C545        H550   1.079       .  S
C546        C547   1.421       .  A
C546       C1560   1.481       .  S
C547        C548   1.409   1_455  A
C547        H551   1.081       .  S
C548        C549   1.402       .  A
C548        C642   1.496       .  S
C549        H552   1.082       .  S
N553        N554   1.333       .  A
N553        N559   1.316       .  A
N553       Mn582   2.262   1_565  S
N554        C561   1.365       .  A
N555        N557   1.314       .  A
N555        N556   1.324       .  A
N555       Mn571   2.224   1_655  S
N556        C562   1.358       .  A
N557        N558   1.332       .  A
N557       Mn582   2.235   1_565  S
N558        C562   1.359       .  A
N559        N560   1.333   1_655  A
N559       Mn571   2.267   1_655  S
N560        C561   1.364   1_455  A
N563        N569   1.319       .  A
N563        N564   1.316       .  A
N563       Mn593   2.200       .  S
N564        C572   1.351       .  A
N565        N566   1.319       .  A
N565        N567   1.318       .  A
N565       Mn571   2.196   1_545  S
N566        C573   1.350       .  A
N567        N568   1.322       .  A
N567       Mn593   2.209       .  S
N568        C573   1.352       .  A
N569        N570   1.328       .  A
N569       Mn571   2.236   1_545  S
N570        C572   1.358       .  A
Mn571      Cl595   2.549   1_465  S
N574        N575   1.321       .  A
N574        N580   1.319       .  A
N574       Mn582   2.202       .  S
N575        C583   1.350       .  A
N576        N578   1.317       .  A
N576        N577   1.321       .  A
N576       Mn594   2.186       .  S
N577        C584   1.348       .  A
N578        N579   1.318       .  A
N578       Mn582   2.212       .  S
N579        C584   1.356       .  A
N580        N581   1.314       .  A
N580       Mn594   2.181       .  S
N581        C583   1.347       .  A
Mn582      Cl595   2.552       .  S
N585        N586   1.328   1_655  A
N585        N591   1.314       .  A
N585       Mn593   2.225   1_655  S
N586        C596   1.358   1_455  A
N587        N588   1.331       .  A
N587        N589   1.313       .  A
N587       Mn594   2.231       .  S
N588        C597   1.359       .  A
N589        N590   1.331       .  A
N589       Mn593   2.260   1_655  S
N590        C597   1.365       .  A
N591        N592   1.323       .  A
N591       Mn594   2.214       .  S
N592        C596   1.356       .  A
Mn593      Cl595   2.548   1_455  S
Mn594      Cl595   2.549       .  S
N598        N599   1.327       .  A
N598        N604   1.319       .  A
N598       Mn627   2.223       .  S
N599        C606   1.355       .  A
N600        N602   1.321       .  A
N600        N601   1.321   1_655  A
N600       Mn616   2.200   1_655  S
N601        C607   1.348   1_455  A
N602        N603   1.320       .  A
N602       Mn627   2.226       .  S
N603        C607   1.356       .  A
N604        N605   1.318       .  A
N604       Mn616   2.214   1_655  S
N605        C606   1.354       .  A
N608        N614   1.314   1_556  A
N608        N609   1.321       .  A
N608       Mn638   2.218       .  S
N609        C617   1.358   1_556  A
N610        N611   1.334       .  A
N610        N612   1.316   1_554  A
N610       Mn616   2.261       .  S
N611        C618   1.366       .  A
N612        N613   1.330       .  A
N612       Mn638   2.260       .  S
N613        C618   1.361   1_556  A
N614        N615   1.331       .  A
N614       Mn616   2.235       .  S
N615        C617   1.359       .  A
Mn616      Cl640   2.557   1_455  S
N619        N620   1.332       .  A
N619        N625   1.316   1_554  A
N619       Mn627   2.263       .  S
N620        C628   1.364   1_554  A
N621        N623   1.314   1_556  A
N621        N622   1.332       .  A
N621       Mn639   2.233       .  S
N622        C629   1.359       .  A
N623        N624   1.324       .  A
N623       Mn627   2.238       .  S
N624        C629   1.361   1_554  A
N625        N626   1.331       .  A
N625       Mn639   2.249       .  S
N626        C628   1.362       .  A
Mn627      Cl640   2.557       .  S
N630        N631   1.318   1_655  A
N630        N636   1.318       .  A
N630       Mn638   2.180   1_655  S
N631        C641   1.347   1_455  A
N632        N633   1.315       .  A
N632        N634   1.320   1_655  A
N632       Mn639   2.212       .  S
N633        C642   1.351       .  A
N634        N635   1.332       .  A
N634       Mn638   2.248       .  S
N635        C642   1.361   1_455  A
N636        N637   1.317       .  A
N636       Mn639   2.188       .  S
N637        C641   1.347       .  A
Mn638      Cl640   2.562   1_456  S
Mn639      Cl640   2.552   1_556  S
N643        N644   1.313       .  A
N643        N649   1.316   1_556  A
N643       Mn672   2.172       .  S
N644        C651   1.346       .  A
N645        N647   1.320   1_554  A
N645        N646   1.327       .  A
N645       Mn661   2.223       .  S
N646        C652   1.354       .  A
N647        N648   1.316       .  A
N647       Mn672   2.216       .  S
N648        C652   1.354   1_556  A
N649        N650   1.315       .  A
N649       Mn661   2.176       .  S
N650        C651   1.349   1_554  A
N653        N659   1.310       .  A
N653        N654   1.326       .  A
N653       Mn683   2.199       .  S
N654        C662   1.354       .  A
N655        N656   1.332       .  A
N655        N657   1.316       .  A
N655       Mn661   2.263       .  S
N656        C663   1.364       .  A
N657        N658   1.330       .  A
N657       Mn683   2.249       .  S
N658        C663   1.362       .  A
N659        N660   1.319       .  A
N659       Mn661   2.193       .  S
N660        C662   1.354       .  A
Mn661      Cl685   2.552   1_554  S
N664        N665   1.331       .  A
N664        N670   1.313       .  A
N664       Mn672   2.242       .  S
N665        C673   1.362       .  A
N666        N668   1.315       .  A
N666        N667   1.318       .  A
N666       Mn684   2.212       .  S
N667        C674   1.356       .  A
N668        N669   1.334       .  A
N668       Mn672   2.247       .  S
N669        C674   1.362       .  A
N670        N671   1.333       .  A
N670       Mn684   2.259       .  S
N671        C673   1.364       .  A
Mn672      Cl685   2.545       .  S
N675        N676   1.314       .  A
N675        N681   1.318   1_554  A
N675       Mn683   2.183   1_565  S
N676        C686   1.348   1_554  A
N677        N678   1.314       .  A
N677        N679   1.319   1_556  A
N677       Mn684   2.177   1_565  S
N678        C687   1.347       .  A
N679        N680   1.319       .  A
N679       Mn683   2.192   1_565  S
N680        C687   1.348   1_554  A
N681        N682   1.327       .  A
N681       Mn684   2.230   1_565  S
N682        C686   1.357       .  A
Mn683      Cl685   2.546   1_554  S
Mn684      Cl685   2.551       .  S
O688        C715   1.268       .  A
O688       Mn714   2.082       .  S
C689       C1259   1.452       .  S
C689        O722   1.267       .  A
C689        O719   1.262       .  A
O690       Mn697   2.182       .  S
O690       Mn708   2.104       .  S
O690       Mn712   2.193       .  S
O690       Mn714   2.118       .  S
O691        C701   1.274       .  A
O691       Mn725   2.107       .  S
O692        C715   1.260       .  A
O692       Mn708   2.041       .  S
O693        C720   1.274       .  A
O693       Mn712   2.214       .  S
O694       Mn725   1.940       .  S
O694       Mn714   1.942       .  S
O694        C710   1.215       .  S
C695       C1112   1.521       .  S
C695        O698   1.269       .  A
C695        O721   1.209       .  S
O696       Mn716   2.115       .  S
O696       Mn697   2.180       .  S
O696       Mn730   2.095       .  S
O696       Mn712   2.202       .  S
Mn697       O726   2.186       .  S
Mn697       O702   2.204       .  S
Mn697       O729   2.156       .  S
Mn697       O703   2.192       .  S
O698       Mn712   2.206       .  S
O699        C701   1.267       .  A
O699       Mn706   2.077       .  S
C700       C1211   1.542       .  S
C700        O726   1.269       .  A
C700        O713   1.219       .  S
C701       C1128   1.480       .  S
O702        C727   1.267       .  A
O703       Mn706   2.100       .  S
O703       Mn725   2.124       .  S
O703       Mn712   2.198       .  S
O704       Mn708   1.959       .  S
O704       Mn730   1.950       .  S
O704        C727   1.207       .  S
C705       C1160   1.470       .  S
C705        O731   1.268       .  A
C705        O707   1.266       .  A
Mn706       O719   2.045       .  S
Mn706       O721   1.933       .  S
Mn706       O713   1.949       .  S
O707       Mn730   2.068       .  S
Mn708       O724   2.084       .  S
Mn708       O718   2.010       .  S
O709        C711   1.263       .  A
O709       Mn714   2.065       .  S
C710       C1080   1.530       .  S
C710        O728   1.271       .  A
C711       C1179   1.485       .  S
C711        O724   1.273       .  A
Mn712       O728   2.197       .  S
O713       Mn716   1.954       .  S
Mn714       O732   1.960       .  S
C715       C1099   1.445       .  S
Mn716       O723   2.072       .  S
Mn716       O731   2.080       .  S
Mn716       O721   1.931       .  S
C717       C1224   1.448       .  S
C717        O723   1.264       .  A
C717        O733   1.264       .  A
O718       Mn730   2.016       .  S
O718        C720   1.232       .  A
C720       C1144   1.535       .  S
O722       Mn725   2.085       .  S
Mn725       O732   1.968       .  S
C727       C1195   1.525       .  S
O729        C734   1.265       .  A
Mn730       O733   2.074       .  S
O732        C734   1.223       .  S
C734       C1240   1.519       .  S
C735        C736   1.420       .  A
C735        C740   1.402       .  A
C735       C1531   1.488       .  S
C736        C737   1.411       .  A
C736        H741   1.083       .  S
C737        C738   1.403       .  A
C737       C1006   1.493       .  S
C738        C739   1.402       .  A
C738        H742   1.084       .  S
C739        C740   1.396       .  A
C739       C2091   1.484       .  S
C740        H743   1.081       .  S
C744        C745   1.402       .  A
C744        C749   1.392       .  A
C744       C1547   1.487       .  S
C745        C746   1.407       .  A
C745        H750   1.082       .  S
C746        C747   1.433       .  A
C746        C940   1.517       .  S
C747        C748   1.434       .  A
C747        H751   1.081       .  S
C748        C749   1.395       .  A
C748       C2072   1.504       .  S
C749        H752   1.084       .  S
C753        C754   1.394       .  A
C753        C758   1.403       .  A
C753       C1880   1.486       .  S
C754        C755   1.400       .  A
C754        H759   1.078       .  S
C755        C756   1.428       .  A
C755       C1739   1.504       .  S
C756        C757   1.420       .  A
C756        H760   1.083       .  S
C757        C758   1.405       .  A
C757        C906   1.504       .  S
C758        H761   1.082       .  S
C762        C763   1.404       .  A
C762        C767   1.393       .  A
C762       C1720   1.472       .  S
C763        C764   1.406       .  A
C763        H768   1.084       .  S
C764        C765   1.412       .  A
C764       C1018   1.500       .  S
C765        C766   1.421       .  A
C765        H769   1.081       .  S
C766        C767   1.396       .  A
C766       C1899   1.486       .  S
C767        H770   1.085       .  S
C771        C772   1.385       .  A
C771        C776   1.395       .  A
C771       C1339   1.451       .  S
C772        C773   1.389       .  A
C772        H777   1.083       .  S
C773        C774   1.414       .  A
C773       C1163   1.478       .  S
C774        C775   1.406       .  A
C774        H778   1.084       .  S
C775        C776   1.397       .  A
C775       C1017   1.475   1_565  S
C776        H779   1.084       .  S
C780        C781   1.409       .  A
C780        C785   1.423       .  A
C780       C1147   1.521       .  S
C781        C782   1.413       .  A
C781        H786   1.082       .  S
C782        C783   1.420       .  A
C782       C1355   1.518       .  S
C783        C784   1.421       .  A
C783        H787   1.082       .  S
C784        C785   1.424       .  A
C784        C941   1.523       .  S
C785        H788   1.083       .  S
C789        C790   1.400       .  A
C789        C794   1.390       .  A
C789       C2283   1.467       .  S
C790        C791   1.405       .  A
C790        H795   1.081       .  S
C791        C792   1.399       .  A
C791        C951   1.463       .  S
C792        C793   1.395       .  A
C792        H796   1.084       .  S
C793        C794   1.384       .  A
C793       C1691   1.452       .  S
C794        H797   1.086       .  S
C798        C799   1.417       .  A
C798        C803   1.416       .  A
C798       C1707   1.519       .  S
C799        C800   1.413       .  A
C799        H804   1.083       .  S
C800        C801   1.425       .  A
C800        C995   1.528       .  S
C801        C802   1.433       .  A
C801        H805   1.083       .  S
C802        C803   1.418       .  A
C802       C2267   1.533       .  S
C803        H806   1.079       .  S
C807        C808   1.424       .  A
C807        C812   1.403       .  A
C807       C2043   1.514       .  S
C808        C809   1.428       .  A
C808        H813   1.083       .  S
C809        C810   1.428       .  A
C809       C1031   1.539       .  S
C810        C811   1.430       .  A
C810        H814   1.083       .  S
C811        C812   1.405       .  A
C811       C1323   1.514       .  S
C812        H815   1.084       .  S
C816        C817   1.417       .  A
C816        C821   1.397       .  A
C816       C2056   1.485       .  S
C817        C818   1.405       .  A
C817        H822   1.084       .  S
C818        C819   1.384       .  A
C818        C985   1.461       .  S
C819        C820   1.388       .  A
C819        H823   1.084       .  S
C820        C821   1.387       .  A
C820       C1304   1.458       .  S
C821        H824   1.074       .  S
C825        C826   1.393       .  A
C825        C830   1.415       .  A
C825       C1867   1.478       .  S
C826        C827   1.388       .  A
C826        H831   1.080       .  S
C827        C828   1.401       .  A
C827       C1275   1.471       .  S
C828        C829   1.399       .  A
C828        H832   1.084       .  S
C829        C830   1.410       .  A
C829        C927   1.488       .  S
C830        H833   1.076       .  S
C834        C835   1.430       .  A
C834        C839   1.399       .  A
C834       C1288   1.501       .  S
C835        C836   1.428       .  A
C835        H840   1.082       .  S
C836        C837   1.409       .  A
C836        C973   1.511       .  S
C837        C838   1.399       .  A
C837        H841   1.084       .  S
C838        C839   1.392       .  A
C838       C1851   1.480       .  S
C839        H842   1.085       .  S
C843        C844   1.392       .  A
C843        C848   1.398       .  A
C843       C1131   1.474       .  S
C844        C845   1.399       .  A
C844        H849   1.085       .  S
C845        C846   1.413       .  A
C845       C1499   1.484       .  S
C846        C847   1.413       .  A
C846        H850   1.082       .  S
C847        C848   1.405       .  A
C847        C986   1.485       .  S
C848        H851   1.084       .  S
C852        C853   1.399       .  A
C852        C857   1.392       .  A
C852       C1512   1.493       .  S
C853        C854   1.400       .  A
C853        H858   1.084       .  S
C854        C855   1.434       .  A
C854       C1115   1.498       .  S
C855        C856   1.425       .  A
C855        H859   1.082       .  S
C856        C857   1.409       .  A
C856        C996   1.512       .  S
C857        H860   1.078       .  S
C861        C862   1.387       .  A
C861        C866   1.403       .  A
C861       C1096   1.465       .  S
C862        C863   1.388       .  A
C862        H867   1.085       .  S
C863        C864   1.408       .  A
C863       C1656   1.467       .  S
C864        C865   1.409       .  A
C864        H868   1.084       .  S
C865        C866   1.401       .  A
C865        C916   1.480       .  S
C866        H869   1.084       .  S
C870        C871   1.411       .  A
C870        C875   1.422       .  A
C870       C1083   1.518       .  S
C871        C872   1.418       .  A
C871        H876   1.083       .  S
C872        C873   1.424       .  A
C872       C1675   1.534       .  S
C873        C874   1.419       .  A
C873        H877   1.074       .  S
C874        C875   1.419       .  A
C874        C972   1.526       .  S
C875        H878   1.083       .  S
C879        C880   1.427       .  A
C879        C884   1.406       .  A
C879       C2235   1.504       .  S
C880        C881   1.423       .  A
C880        H885   1.083       .  S
C881        C882   1.407       .  A
C881        C961   1.505       .  S
C882        C883   1.399       .  A
C882        H886   1.083       .  S
C883        C884   1.403       .  A
C883       C1483   1.495       .  S
C884        H887   1.084       .  S
C888        C889   1.403       .  A
C888        C893   1.418       .  A
C888       C1467   1.488       .  S
C889        C890   1.396       .  A
C889        H894   1.085       .  S
C890        C891   1.395       .  A
C890       C2248   1.488       .  S
C891        C892   1.404       .  A
C891        H895   1.081       .  S
C892        C893   1.417       .  A
C892        C917   1.492       .  S
C893        H896   1.083       .  S
N897        N898   1.330       .  A
N897        N903   1.314       .  A
N897       Mn926   2.241   1_455  S
N898        C905   1.360       .  A
N899        N901   1.315       .  A
N899        N900   1.329       .  A
N899       Mn915   2.233       .  S
N900        C906   1.358       .  A
N901        N902   1.323       .  A
N901       Mn926   2.225       .  S
N902        C906   1.359       .  A
N903        N904   1.328       .  A
N903       Mn915   2.241   1_455  S
N904        C905   1.362       .  A
N907        N913   1.319       .  A
N907        N908   1.322       .  A
N907       Mn937   2.219       .  S
N908        C916   1.355       .  A
N909        N910   1.317       .  A
N909        N911   1.317       .  A
N909       Mn915   2.212   1_455  S
N910        C917   1.354       .  A
N911        N912   1.329       .  A
N911       Mn937   2.224   1_455  S
N912        C917   1.356       .  A
N913        N914   1.321       .  A
N913       Mn915   2.198       .  S
N914        C916   1.349       .  A
Mn915      Cl939   2.549       .  S
N918        N919   1.327       .  A
N918        N924   1.319       .  A
N918       Mn926   2.222       .  S
N919        C927   1.356       .  A
N920        N922   1.319       .  A
N920        N921   1.319       .  A
N920       Mn938   2.184   1_455  S
N921        C928   1.345       .  A
N922        N923   1.317       .  A
N922       Mn926   2.188   1_455  S
N923        C928   1.348       .  A
N924        N925   1.317       .  A
N924       Mn938   2.216       .  S
N925        C927   1.354       .  A
Mn926      Cl939   2.554       .  S
N929        N930   1.324       .  A
N929        N935   1.314       .  A
N929       Mn937   2.237   1_455  S
N930        C940   1.361       .  A
N931        N932   1.331       .  A
N931        N933   1.315       .  A
N931       Mn938   2.248       .  S
N932        C941   1.363       .  A
N933        N934   1.330       .  A
N933       Mn937   2.252       .  S
N934        C941   1.362       .  A
N935        N936   1.334       .  A
N935       Mn938   2.237   1_455  S
N936        C940   1.358       .  A
Mn937      Cl939   2.551       .  S
Mn938      Cl939   2.552       .  S
N942        N943   1.327       .  A
N942        N948   1.319       .  A
N942       Mn971   2.226       .  S
N943        C950   1.356       .  A
N944        N946   1.318       .  A
N944        N945   1.316       .  A
N944       Mn960   2.190   1_556  S
N945        C951   1.347       .  A
N946        N947   1.320       .  A
N946       Mn971   2.194   1_556  S
N947        C951   1.351       .  A
N948        N949   1.314       .  A
N948       Mn960   2.198       .  S
N949        C950   1.350       .  A
N952        N958   1.313       .  A
N952        N953   1.319       .  A
N952       Mn982   2.208   1_556  S
N953        C961   1.356       .  A
N954        N955   1.331       .  A
N954        N956   1.313       .  A
N954       Mn960   2.257       .  S
N955        C962   1.365       .  A
N956        N957   1.333       .  A
N956       Mn982   2.253       .  S
N957        C962   1.363       .  A
N958        N959   1.332       .  A
N958       Mn960   2.234   1_556  S
N959        C961   1.360       .  A
Mn960      Cl984   2.548       .  S
N963        N964   1.330       .  A
N963        N969   1.316       .  A
N963       Mn971   2.255   1_556  S
N964        C972   1.363       .  A
N965        N967   1.313       .  A
N965        N966   1.333       .  A
N965       Mn983   2.243   1_554  S
N966        C973   1.362       .  A
N967        N968   1.321       .  A
N967       Mn971   2.220       .  S
N968        C973   1.358       .  A
N969        N970   1.332       .  A
N969       Mn983   2.256       .  S
N970        C972   1.364       .  A
Mn971      Cl984   2.554       .  S
N974        N975   1.320       .  A
N974        N980   1.320       .  A
N974       Mn982   2.172       .  S
N975        C985   1.345       .  A
N976        N977   1.318       .  A
N976        N978   1.319       .  A
N976       Mn983   2.205       .  S
N977        C986   1.352       .  A
N978        N979   1.326       .  A
N978       Mn982   2.225   1_556  S
N979        C986   1.355       .  A
N980        N981   1.314       .  A
N980       Mn983   2.201   1_554  S
N981        C985   1.349       .  A
Mn982      Cl984   2.556       .  S
Mn983      Cl984   2.550   1_556  S
N987        N988   1.329       .  A
N987        N993   1.313       .  A
N987      Mn1016   2.253       .  S
N988        C995   1.362       .  A
N989        N991   1.316       .  A
N989        N990   1.313   1_545  A
N989      Mn1005   2.195       .  S
N990        C996   1.349       .  A
N991        N992   1.339   1_545  A
N991      Mn1016   2.265       .  S
N992        C996   1.367       .  A
N993        N994   1.334       .  A
N993      Mn1005   2.245       .  S
N994        C995   1.364       .  A
N997       N1003   1.316       .  A
N997        N998   1.318   1_545  A
N997      Mn1027   2.200       .  S
N998       C1006   1.352       .  A
N999       N1000   1.319       .  A
N999       N1001   1.318       .  A
N999      Mn1005   2.184       .  S
N1000      C1007   1.349       .  A
N1001      N1002   1.321       .  A
N1001     Mn1027   2.212       .  S
N1002      C1007   1.351       .  A
N1003      N1004   1.329   1_545  A
N1003     Mn1005   2.231       .  S
N1004      C1006   1.358       .  A
Mn1005    Cl1029   2.568       .  S
N1008      N1009   1.321       .  A
N1008      N1014   1.319       .  A
N1008     Mn1016   2.194       .  S
N1009      C1017   1.349       .  A
N1010      N1012   1.323       .  A
N1010      N1011   1.330       .  A
N1010     Mn1028   2.260       .  S
N1011      C1018   1.361       .  A
N1012      N1013   1.320       .  A
N1012     Mn1016   2.225       .  S
N1013      C1018   1.354       .  A
N1014      N1015   1.319       .  A
N1014     Mn1028   2.210       .  S
N1015      C1017   1.353       .  A
Mn1016    Cl1029   2.548       .  S
N1019      N1020   1.328       .  A
N1019      N1025   1.312       .  A
N1019     Mn1027   2.207       .  S
N1020      C1030   1.356       .  A
N1021      N1022   1.338   1_545  A
N1021      N1023   1.320       .  A
N1021     Mn1028   2.304       .  S
N1022      C1031   1.371       .  A
N1023      N1024   1.329   1_545  A
N1023     Mn1027   2.248       .  S
N1024      C1031   1.360       .  A
N1025      N1026   1.322       .  A
N1025     Mn1028   2.227       .  S
N1026      C1030   1.359       .  A
Mn1027    Cl1029   2.551       .  S
Mn1028    Cl1029   2.555       .  S
O1032      C1059   1.265       .  A
O1032     Mn1058   2.058       .  S
C1033      C2203   1.456       .  S
C1033      O1066   1.263       .  A
C1033      O1063   1.269       .  A
O1034     Mn1041   2.180       .  S
O1034     Mn1052   2.109       .  S
O1034     Mn1056   2.188       .  S
O1034     Mn1058   2.110       .  S
O1035      C1045   1.270       .  A
O1035     Mn1069   2.101       .  S
O1036      C1059   1.261       .  A
O1036     Mn1052   2.044       .  S
O1037      C1064   1.266       .  A
O1037     Mn1056   2.157       .  S
O1038     Mn1069   1.948       .  S
O1038     Mn1058   1.945       .  S
O1038      C1054   1.210       .  S
C1039      C2472   1.526       .  S
C1039      O1042   1.266       .  A
C1039      O1065   1.209       .  S
O1040     Mn1060   2.097       .  S
O1040     Mn1041   2.184       .  S
O1040     Mn1074   2.110       .  S
O1040     Mn1056   2.180       .  S
Mn1041     O1070   2.189       .  S
Mn1041     O1046   2.207       .  S
Mn1041     O1073   2.184       .  S
Mn1041     O1047   2.182       .  S
O1042     Mn1056   2.191       .  S
O1043      C1045   1.262       .  A
O1043     Mn1050   2.050       .  S
C1044      C2168   1.532       .  S
C1044      O1070   1.267       .  A
C1044      O1057   1.215       .  S
C1045      C2587   1.471       .  S
O1046      C1071   1.271       .  A
O1047     Mn1050   2.096       .  S
O1047     Mn1069   2.082       .  S
O1047     Mn1056   2.172       .  S
O1048     Mn1052   1.941       .  S
O1048     Mn1074   1.936       .  S
O1048      C1071   1.210       .  S
C1049      C2440   1.474       .  S
C1049      O1075   1.278       .  A
C1049      O1051   1.257       .  A
Mn1050     O1063   2.089       .  S
Mn1050     O1065   1.930       .  S
Mn1050     O1057   1.937       .  S
O1051     Mn1074   2.035       .  S
Mn1052     O1068   2.095       .  S
Mn1052     O1062   1.966       .  S
O1053      C1055   1.270       .  A
O1053     Mn1058   2.080       .  S
C1054      C2555   1.537       .  S
C1054      O1072   1.265       .  A
C1055      C1979   1.461       .  S
C1055      O1068   1.272       .  A
Mn1056     O1072   2.200       .  S
O1057     Mn1060   1.957       .  S
Mn1058     O1076   1.947       .  S
C1059      C2523   1.434       .  S
Mn1060     O1067   2.019       .  S
Mn1060     O1075   2.112       .  S
Mn1060     O1065   1.930       .  S
C1061      C2363   1.433       .  S
C1061      O1067   1.258       .  A
C1061      O1077   1.266       .  A
O1062     Mn1074   1.939       .  S
O1062      C1064   1.225       .  S
C1064      C2491   1.526       .  S
O1066     Mn1069   2.071       .  S
Mn1069     O1076   1.944       .  S
C1071      C2395   1.538       .  S
O1073      C1078   1.271       .  A
Mn1074     O1077   2.067       .  S
O1076      C1078   1.212       .  S
C1078      C2011   1.510       .  S
C1079      C1080   1.419       .  A
C1079      C1084   1.415       .  A
C1079      H1086   1.082       .  S
C1080      C1081   1.424       .  A
C1081      C1082   1.430       .  A
C1081      C1088   1.515       .  S
C1082      C1083   1.414       .  A
C1082      H1087   1.082       .  S
C1083      C1084   1.415       .  A
C1084      C1085   1.521       .  S
C1085      F1089   1.385       .  S
C1085      F1090   1.384       .  S
C1085      F1091   1.381       .  S
C1088      F1092   1.383       .  S
C1088      F1093   1.383       .  S
C1088      F1094   1.384       .  S
C1095      C1096   1.403       .  A
C1095      C1100   1.388       .  A
C1095      H1102   1.083       .  S
C1096      C1097   1.421       .  A
C1097      C1098   1.399       .  A
C1097      C1104   1.517       .  S
C1098      C1099   1.397       .  A
C1098      H1103   1.085       .  S
C1099      C1100   1.411       .  A
C1100      C1101   1.521       .  S
C1101      F1105   1.385       .  S
C1101      F1106   1.380       .  S
C1101      F1107   1.382       .  S
C1104      F1108   1.384       .  S
C1104      F1109   1.382       .  S
C1104      F1110   1.381       .  S
C1111      C1112   1.415       .  A
C1111      C1116   1.405       .  A
C1111      H1118   1.076       .  S
C1112      C1113   1.418       .  A
C1113      C1114   1.431       .  A
C1113      C1120   1.515       .  S
C1114      C1115   1.419       .  A
C1114      H1119   1.082       .  S
C1115      C1116   1.411       .  A
C1116      C1117   1.523       .  S
C1117      F1121   1.383       .  S
C1117      F1122   1.379       .  S
C1117      F1123   1.382       .  S
C1120      F1124   1.383       .  S
C1120      F1125   1.383       .  S
C1120      F1126   1.384       .  S
C1127      C1128   1.404       .  A
C1127      C1132   1.404       .  A
C1127      H1134   1.081       .  S
C1128      C1129   1.421       .  A
C1129      C1130   1.404       .  A
C1129      C1136   1.520       .  S
C1130      C1131   1.401       .  A
C1130      H1135   1.083       .  S
C1131      C1132   1.413       .  A
C1132      C1133   1.517       .  S
C1133      F1137   1.382       .  S
C1133      F1138   1.382       .  S
C1133      F1139   1.379       .  S
C1136      F1140   1.383       .  S
C1136      F1141   1.380       .  S
C1136      F1142   1.385       .  S
C1143      C1144   1.409       .  A
C1143      C1148   1.429       .  A
C1143      H1150   1.082       .  S
C1144      C1145   1.448       .  A
C1145      C1146   1.413       .  A
C1145      C1152   1.525       .  S
C1146      C1147   1.393       .  A
C1146      H1151   1.083       .  S
C1147      C1148   1.428       .  A
C1148      C1149   1.514       .  S
C1149      F1153   1.383       .  S
C1149      F1154   1.383       .  S
C1149      F1155   1.380       .  S
C1152      F1156   1.379       .  S
C1152      F1157   1.377       .  S
C1152      F1158   1.385       .  S
C1159      C1160   1.402       .  A
C1159      C1164   1.402       .  A
C1159      H1166   1.085       .  S
C1160      C1161   1.409       .  A
C1161      C1162   1.390       .  A
C1161      C1168   1.500       .  S
C1162      C1163   1.400       .  A
C1162      H1167   1.082       .  S
C1163      C1164   1.426       .  A
C1164      C1165   1.520       .  S
C1165      F1169   1.384       .  S
C1165      F1170   1.381       .  S
C1165      F1171   1.383       .  S
C1168      F1172   1.377       .  S
C1168      F1173   1.378       .  S
C1168      F1174   1.385       .  S
C1175      C1176   1.401       .  A
C1175      C1180   1.394       .  A
C1175      H1182   1.083       .  S
C1176      C1177   1.427       .  A
C1177      C1178   1.405       .  A
C1177      C1184   1.524       .  S
C1178      C1179   1.405       .  A
C1178      H1183   1.083       .  S
C1179      C1180   1.425       .  A
C1180      C1181   1.524       .  S
C1181      F1185   1.385       .  S
C1181      F1186   1.381       .  S
C1181      F1187   1.369       .  S
C1184      F1188   1.383       .  S
C1184      F1189   1.382       .  S
C1184      F1190   1.385       .  S
C1191      C1192   1.424       .  A
C1191      C1196   1.429       .  A
C1191      H1198   1.083       .  S
C1192      C1193   1.420       .  A
C1193      C1194   1.410       .  A
C1193      C1200   1.525       .  S
C1194      C1195   1.414       .  A
C1194      H1199   1.073       .  S
C1195      C1196   1.416       .  A
C1196      C1197   1.515       .  S
C1197      F1201   1.384       .  S
C1197      F1202   1.382       .  S
C1197      F1203   1.381       .  S
C1200      F1204   1.383       .  S
C1200      F1205   1.380       .  S
C1200      F1206   1.383       .  S
C1207      C1208   1.394       .  A
C1207      C1212   1.416       .  A
C1207      H1214   1.082       .  S
C1208      C1209   1.428       .  A
C1209      C1210   1.433       .  A
C1209      C1216   1.516       .  S
C1210      C1211   1.415       .  A
C1210      H1215   1.082       .  S
C1211      C1212   1.438       .  A
C1212      C1213   1.513       .  S
C1213      F1217   1.383       .  S
C1213      F1218   1.380       .  S
C1213      F1219   1.383       .  S
C1216      F1220   1.383       .  S
C1216      F1221   1.381   1_565  S
C1216      F1222   1.385       .  S
C1223      C1224   1.399       .  A
C1223      C1228   1.397       .  A
C1223      H1230   1.084       .  S
C1224      C1225   1.407       .  A
C1225      C1226   1.397       .  A
C1225      C1232   1.513       .  S
C1226      C1227   1.401       .  A
C1226      H1231   1.084       .  S
C1227      C1228   1.414       .  A
C1228      C1229   1.520   1_565  S
C1229      F1233   1.384   1_545  S
C1229      F1234   1.381   1_545  S
C1229      F1235   1.382       .  S
C1232      F1236   1.373       .  S
C1232      F1237   1.382       .  S
C1232      F1238   1.384       .  S
C1239      C1240   1.414       .  A
C1239      C1244   1.414       .  A
C1239      H1246   1.082       .  S
C1240      C1241   1.426       .  A
C1241      C1242   1.426       .  A
C1241      C1248   1.515       .  S
C1242      C1243   1.409       .  A
C1242      H1247   1.082       .  S
C1243      C1244   1.417       .  A
C1244      C1245   1.518       .  S
C1245      F1249   1.384       .  S
C1245      F1250   1.380       .  S
C1245      F1251   1.383       .  S
C1248      F1252   1.382       .  S
C1248      F1253   1.380       .  S
C1248      F1254   1.384       .  S
C1255      C1256   1.402       .  A
C1255      C1260   1.397       .  A
C1255      H1262   1.084       .  S
C1256      C1257   1.422       .  A
C1257      C1258   1.392       .  A
C1257      C1264   1.526       .  S
C1258      C1259   1.396       .  A
C1258      H1263   1.081       .  S
C1259      C1260   1.410       .  A
C1260      C1261   1.512       .  S
C1261      F1265   1.381       .  S
C1261      F1266   1.384       .  S
C1261      F1267   1.376       .  S
C1264      F1268   1.382       .  S
C1264      F1269   1.381       .  S
C1264      F1270   1.385       .  S
C1271      C1272   1.400       .  A
C1271      C1276   1.405       .  A
C1271      H1278   1.084       .  S
C1272      C1273   1.413       .  A
C1273      C1274   1.390       .  A
C1273      C1280   1.517       .  S
C1274      C1275   1.400       .  A
C1274      H1279   1.083       .  S
C1275      C1276   1.420       .  A
C1276      C1277   1.522       .  S
C1277      F1281   1.385       .  S
C1277      F1282   1.384       .  S
C1277      F1283   1.381       .  S
C1280      F1284   1.382       .  S
C1280      F1285   1.382       .  S
C1280      F1286   1.385       .  S
C1287      C1288   1.412       .  A
C1287      C1292   1.427       .  A
C1287      H1294   1.083       .  S
C1288      C1289   1.417       .  A
C1289      C1290   1.406       .  A
C1289      C1296   1.521       .  S
C1290      C1291   1.410       .  A
C1290      H1295   1.083       .  S
C1291      C1292   1.422       .  A
C1292      C1293   1.516       .  S
C1293      F1297   1.385       .  S
C1293      F1298   1.380       .  S
C1293      F1299   1.383       .  S
C1296      F1300   1.383       .  S
C1296      F1301   1.379       .  S
C1296      F1302   1.383       .  S
C1303      C1304   1.394       .  A
C1303      C1308   1.380       .  A
C1303      H1310   1.083       .  S
C1304      C1305   1.420       .  A
C1305      C1306   1.395       .  A
C1305      C1312   1.521       .  S
C1306      C1307   1.400       .  A
C1306      H1311   1.084       .  S
C1307      C1308   1.424       .  A
C1308      C1309   1.529       .  S
C1309      F1313   1.385       .  S
C1309      F1314   1.377       .  S
C1309      F1315   1.384       .  S
C1312      F1316   1.380       .  S
C1312      F1317   1.383       .  S
C1312      F1318   1.385       .  S
C1319      C1320   1.411       .  A
C1319      C1324   1.427       .  A
C1319      H1326   1.084       .  S
C1320      C1321   1.438       .  A
C1321      C1322   1.417       .  A
C1321      C1328   1.518       .  S
C1322      C1323   1.399       .  A
C1322      H1327   1.083       .  S
C1323      C1324   1.429       .  A
C1324      C1325   1.518       .  S
C1325      F1329   1.384       .  S
C1325      F1330   1.383       .  S
C1325      F1331   1.382       .  S
C1328      F1332   1.381       .  S
C1328      F1333   1.382       .  S
C1328      F1334   1.385       .  S
C1335      C1336   1.402       .  A
C1335      C1340   1.395       .  A
C1335      H1342   1.084       .  S
C1336      C1337   1.405       .  A
C1337      C1338   1.388       .  A
C1337      C1344   1.503       .  S
C1338      C1339   1.399       .  A
C1338      H1343   1.084       .  S
C1339      C1340   1.410       .  A
C1340      C1341   1.517       .  S
C1341      F1345   1.385       .  S
C1341      F1346   1.380       .  S
C1341      F1347   1.383       .  S
C1344      F1348   1.385       .  S
C1344      F1349   1.383       .  S
C1344      F1350   1.376       .  S
C1351      C1352   1.413       .  A
C1351      C1356   1.429       .  A
C1351      H1358   1.082       .  S
C1352      C1353   1.429       .  A
C1353      C1354   1.415       .  A
C1353      C1360   1.506       .  S
C1354      C1355   1.401       .  A
C1354      H1359   1.083       .  S
C1355      C1356   1.422       .  A
C1356      C1357   1.513       .  S
C1357      F1361   1.379       .  S
C1357      F1362   1.383       .  S
C1357      F1363   1.382       .  S
C1360      F1364   1.382       .  S
C1360      F1365   1.374       .  S
C1360      F1366   1.385       .  S
C1367      C1368   1.400       .  A
C1367      C1372   1.396       .  A
C1367      H1374   1.084       .  S
C1368      C1369   1.407       .  A
C1369      C1370   1.399       .  A
C1369      C1376   1.509       .  S
C1370      C1371   1.404       .  A
C1370      H1375   1.084       .  S
C1371      C1372   1.417       .  A
C1372      C1373   1.522       .  S
C1373      F1377   1.385       .  S
C1373      F1378   1.382       .  S
C1373      F1379   1.380       .  S
C1376      F1380   1.383       .  S
C1376      F1381   1.376       .  S
C1376      F1382   1.385       .  S
C1383      C1384   1.413       .  A
C1383      C1388   1.429       .  A
C1383      H1390   1.083       .  S
C1384      C1385   1.415       .  A
C1385      C1386   1.413       .  A
C1385      C1392   1.519       .  S
C1386      C1387   1.418       .  A
C1386      H1391   1.082       .  S
C1387      C1388   1.424       .  A
C1388      C1389   1.519       .  S
C1389      F1393   1.384       .  S
C1389      F1394   1.382       .  S
C1389      F1395   1.377       .  S
C1392      F1396   1.381       .  S
C1392      F1397   1.381       .  S
C1392      F1398   1.383       .  S
C1399      C1400   1.419       .  A
C1399      C1404   1.402       .  A
C1399      H1406   1.077       .  S
C1400      C1401   1.409       .  A
C1401      C1402   1.416       .  A
C1401      C1408   1.508       .  S
C1402      C1403   1.416       .  A
C1402      H1407   1.083       .  S
C1403      C1404   1.412       .  A
C1404      C1405   1.525       .  S
C1405      F1409   1.381       .  S
C1405      F1410   1.379       .  S
C1405      F1411   1.383       .  S
C1408      F1412   1.381       .  S
C1408      F1413   1.380       .  S
C1408      F1414   1.383       .  S
C1415      C1416   1.390   1_565  A
C1415      C1420   1.392       .  A
C1415      H1422   1.086   1_565  S
C1416      C1417   1.412       .  A
C1417      C1418   1.395   1_545  A
C1417      C1424   1.518       .  S
C1418      C1419   1.399       .  A
C1418      H1423   1.085       .  S
C1419      C1420   1.416       .  A
C1420      C1421   1.506       .  S
C1421      F1425   1.383       .  S
C1421      F1426   1.377       .  S
C1421      F1427   1.375       .  S
C1424      F1428   1.380       .  S
C1424      F1429   1.381       .  S
C1424      F1430   1.385       .  S
C1431      C1432   1.398       .  A
C1431      C1436   1.414       .  A
C1431      H1438   1.082       .  S
C1432      C1433   1.429       .  A
C1433      C1434   1.432       .  A
C1433      C1440   1.517       .  S
C1434      C1435   1.411       .  A
C1434      H1439   1.082       .  S
C1435      C1436   1.441       .  A
C1436      C1437   1.519       .  S
C1437      F1441   1.385       .  S
C1437      F1442   1.382       .  S
C1437      F1443   1.377       .  S
C1440      F1444   1.379       .  S
C1440      F1445   1.383       .  S
C1440      F1446   1.384       .  S
C1447      C1448   1.403       .  A
C1447      C1452   1.395       .  A
C1447      H1454   1.083       .  S
C1448      C1449   1.400       .  A
C1449      C1450   1.387       .  A
C1449      C1456   1.515       .  S
C1450      C1451   1.404       .  A
C1450      H1455   1.080       .  S
C1451      C1452   1.414       .  A
C1452      C1453   1.516       .  S
C1453      F1457   1.385       .  S
C1453      F1458   1.377       .  S
C1453      F1459   1.380       .  S
C1456      F1460   1.379       .  S
C1456      F1461   1.376       .  S
C1456      F1462   1.378       .  S
C1463      C1464   1.409       .  A
C1463      C1468   1.417       .  A
C1463      H1470   1.078       .  S
C1464      C1465   1.429       .  A
C1465      C1466   1.403       .  A
C1465      C1472   1.523       .  S
C1466      C1467   1.397       .  A
C1466      H1471   1.084       .  S
C1467      C1468   1.415       .  A
C1468      C1469   1.515       .  S
C1469      F1473   1.384       .  S
C1469      F1474   1.382       .  S
C1469      F1475   1.383       .  S
C1472      F1476   1.385       .  S
C1472      F1477   1.374       .  S
C1472      F1478   1.378       .  S
C1479      C1480   1.401       .  A
C1479      C1484   1.405       .  A
C1479      H1486   1.084       .  S
C1480      C1481   1.422       .  A
C1481      C1482   1.408       .  A
C1481      C1488   1.511       .  S
C1482      C1483   1.403       .  A
C1482      H1487   1.085       .  S
C1483      C1484   1.424       .  A
C1484      C1485   1.521       .  S
C1485      F1489   1.385       .  S
C1485      F1490   1.383       .  S
C1485      F1491   1.382       .  S
C1488      F1492   1.381       .  S
C1488      F1493   1.377       .  S
C1488      F1494   1.383       .  S
C1495      C1496   1.417       .  A
C1495      C1500   1.401       .  A
C1495      H1502   1.081       .  S
C1496      C1497   1.427       .  A
C1497      C1498   1.415       .  A
C1497      C1504   1.522       .  S
C1498      C1499   1.407       .  A
C1498      H1503   1.083       .  S
C1499      C1500   1.411       .  A
C1500      C1501   1.524       .  S
C1501      F1505   1.385       .  S
C1501      F1506   1.383       .  S
C1501      F1507   1.381       .  S
C1504      F1508   1.368       .  S
C1504      F1509   1.376       .  S
C1504      F1510   1.385       .  S
C1511      C1512   1.403       .  A
C1511      C1516   1.403       .  A
C1511      H1518   1.083       .  S
C1512      C1513   1.429       .  A
C1513      C1514   1.407       .  A
C1513      C1520   1.524       .  S
C1514      C1515   1.400       .  A
C1514      H1519   1.084       .  S
C1515      C1516   1.411       .  A
C1516      C1517   1.505       .  S
C1517      F1521   1.385       .  S
C1517      F1522   1.380       .  S
C1517      F1523   1.384       .  S
C1520      F1524   1.380       .  S
C1520      F1525   1.383       .  S
C1520      F1526   1.384       .  S
C1527      C1528   1.411       .  A
C1527      C1532   1.412       .  A
C1527      H1534   1.084       .  S
C1528      C1529   1.454       .  A
C1529      C1530   1.402       .  A
C1529      C1536   1.532       .  S
C1530      C1531   1.385       .  A
C1530      H1535   1.087       .  S
C1531      C1532   1.416       .  A
C1532      C1533   1.515       .  S
C1533      F1537   1.383       .  S
C1533      F1538   1.383       .  S
C1533      F1539   1.382       .  S
C1536      F1540   1.385       .  S
C1536      F1541   1.356       .  S
C1536      F1542   1.385       .  S
C1543      C1544   1.398       .  A
C1543      C1548   1.394       .  A
C1543      H1550   1.085       .  S
C1544      C1545   1.413       .  A
C1545      C1546   1.408       .  A
C1545      C1552   1.521       .  S
C1546      C1547   1.412       .  A
C1546      H1551   1.082       .  S
C1547      C1548   1.419       .  A
C1548      C1549   1.521       .  S
C1549      F1553   1.383       .  S
C1549      F1554   1.383       .  S
C1549      F1555   1.382       .  S
C1552      F1556   1.380       .  S
C1552      F1557   1.383       .  S
C1552      F1558   1.385       .  S
C1559      C1560   1.396       .  A
C1559      C1564   1.399       .  A
C1559      H1566   1.084       .  S
C1560      C1561   1.425       .  A
C1561      C1562   1.409       .  A
C1561      C1568   1.519       .  S
C1562      C1563   1.405       .  A
C1562      H1567   1.084       .  S
C1563      C1564   1.428       .  A
C1564      C1565   1.528       .  S
C1565      F1569   1.385       .  S
C1565      F1570   1.373       .  S
C1565      F1571   1.379       .  S
C1568      F1572   1.382       .  S
C1568      F1573   1.383       .  S
C1568      F1574   1.384       .  S
C1575      C1576   1.400       .  A
C1575      C1580   1.403       .  A
C1575      H1582   1.085       .  S
C1576      C1577   1.417       .  A
C1577      C1578   1.410       .  A
C1577      C1584   1.515       .  S
C1578      C1579   1.406       .  A
C1578      H1583   1.083       .  S
C1579      C1580   1.419       .  A
C1580      C1581   1.519       .  S
C1581      F1585   1.383       .  S
C1581      F1586   1.383       .  S
C1581      F1587   1.381   1_455  S
C1584      F1588   1.377       .  S
C1584      F1589   1.380       .  S
C1584      F1590   1.384       .  S
C1591      C1592   1.410   1_565  A
C1591      C1596   1.412       .  A
C1591      H1598   1.083   1_565  S
C1592      C1593   1.425   1_545  A
C1593      C1594   1.403       .  A
C1593      C1600   1.525       .  S
C1594      C1595   1.400       .  A
C1594      H1599   1.084       .  S
C1595      C1596   1.413       .  A
C1596      C1597   1.514       .  S
C1597      F1601   1.384       .  S
C1597      F1602   1.379       .  S
C1597      F1603   1.382       .  S
C1600      F1604   1.381       .  S
C1600      F1605   1.383   1_565  S
C1600      F1606   1.384       .  S
C1607      C1608   1.414       .  A
C1607      C1612   1.416       .  A
C1607      H1614   1.084       .  S
C1608      C1609   1.452       .  A
C1609      C1610   1.399       .  A
C1609      C1616   1.530       .  S
C1610      C1611   1.386       .  A
C1610      H1615   1.087       .  S
C1611      C1612   1.418       .  A
C1612      C1613   1.516       .  S
C1613      F1617   1.384       .  S
C1613      F1618   1.382   1_565  S
C1613      F1619   1.383       .  S
C1616      F1620   1.386       .  S
C1616      F1621   1.353       .  S
C1616      F1622   1.385       .  S
C1623      C1624   1.412       .  A
C1623      C1628   1.414       .  A
C1623      H1630   1.083       .  S
C1624      C1625   1.417       .  A
C1625      C1626   1.394       .  A
C1625      C1632   1.528       .  S
C1626      C1627   1.409       .  A
C1626      H1631   1.081       .  S
C1627      C1628   1.415       .  A
C1628      C1629   1.518       .  S
C1629      F1633   1.384       .  S
C1629      F1634   1.383       .  S
C1629      F1635   1.381       .  S
C1632      F1636   1.383       .  S
C1632      F1637   1.381       .  S
C1632      F1638   1.385       .  S
C1639      C1640   1.398       .  A
C1639      C1644   1.411       .  A
C1639      H1646   1.083       .  S
C1640      C1641   1.408       .  A
C1641      C1642   1.410       .  A
C1641      C1648   1.515       .  S
C1642      C1643   1.408       .  A
C1642      H1647   1.083       .  S
C1643      C1644   1.429       .  A
C1644      C1645   1.522       .  S
C1645      F1649   1.385       .  S
C1645      F1650   1.384       .  S
C1645      F1651   1.382       .  S
C1648      F1652   1.384       .  S
C1648      F1653   1.380       .  S
C1648      F1654   1.363       .  S
C1655      C1656   1.400       .  A
C1655      C1660   1.397       .  A
C1655      H1662   1.082       .  S
C1656      C1657   1.417       .  A
C1657      C1658   1.401       .  A
C1657      C1664   1.517       .  S
C1658      C1659   1.396       .  A
C1658      H1663   1.078       .  S
C1659      C1660   1.413       .  A
C1660      C1661   1.517       .  S
C1661      F1665   1.385       .  S
C1661      F1666   1.382       .  S
C1661      F1667   1.382       .  S
C1664      F1668   1.381       .  S
C1664      F1669   1.379       .  S
C1664      F1670   1.382       .  S
C1671      C1672   1.413       .  A
C1671      C1676   1.417       .  A
C1671      H1678   1.081       .  S
C1672      C1673   1.419       .  A
C1673      C1674   1.427       .  A
C1673      C1680   1.513       .  S
C1674      C1675   1.420       .  A
C1674      H1679   1.082       .  S
C1675      C1676   1.430       .  A
C1676      C1677   1.525       .  S
C1677      F1681   1.382       .  S
C1677      F1682   1.381       .  S
C1677      F1683   1.383       .  S
C1680      F1684   1.382       .  S
C1680      F1685   1.378       .  S
C1680      F1686   1.384       .  S
C1687      C1688   1.399       .  A
C1687      C1692   1.394       .  A
C1687      H1694   1.085       .  S
C1688      C1689   1.411       .  A
C1689      C1690   1.394       .  A
C1689      C1696   1.514       .  S
C1690      C1691   1.399       .  A
C1690      H1695   1.085       .  S
C1691      C1692   1.413       .  A
C1692      C1693   1.520       .  S
C1693      F1697   1.385       .  S
C1693      F1698   1.383       .  S
C1693      F1699   1.382       .  S
C1696      F1700   1.383       .  S
C1696      F1701   1.380       .  S
C1696      F1702   1.381       .  S
C1703      C1704   1.410       .  A
C1703      C1708   1.425       .  A
C1703      H1710   1.083       .  S
C1704      C1705   1.439       .  A
C1705      C1706   1.413       .  A
C1705      C1712   1.526       .  S
C1706      C1707   1.399       .  A
C1706      H1711   1.083       .  S
C1707      C1708   1.425       .  A
C1708      C1709   1.513       .  S
C1709      F1713   1.384       .  S
C1709      F1714   1.378       .  S
C1709      F1715   1.383       .  S
C1712      F1716   1.381       .  S
C1712      F1717   1.384       .  S
C1712      F1718   1.382       .  S
C1719      C1720   1.401       .  A
C1719      C1724   1.397       .  A
C1719      H1726   1.084       .  S
C1720      C1721   1.414       .  A
C1721      C1722   1.408       .  A
C1721      C1728   1.516       .  S
C1722      C1723   1.403       .  A
C1722      H1727   1.084       .  S
C1723      C1724   1.409       .  A
C1724      C1725   1.515       .  S
C1725      F1729   1.385       .  S
C1725      F1730   1.382       .  S
C1725      F1731   1.383       .  S
C1728      F1732   1.382       .  S
C1728      F1733   1.382       .  S
C1728      F1734   1.384       .  S
C1735      C1736   1.408       .  A
C1735      C1740   1.421       .  A
C1735      H1742   1.083       .  S
C1736      C1737   1.441       .  A
C1737      C1738   1.401       .  A
C1737      C1744   1.522       .  S
C1738      C1739   1.391       .  A
C1738      H1743   1.083       .  S
C1739      C1740   1.432       .  A
C1740      C1741   1.521       .  S
C1741      F1745   1.381       .  S
C1741      F1746   1.382       .  S
C1741      F1747   1.383       .  S
C1744      F1748   1.377       .  S
C1744      F1749   1.374       .  S
C1744      F1750   1.386       .  S
C1751      C1752   1.396       .  A
C1751      C1756   1.389       .  A
C1751      H1758   1.080       .  S
C1752      C1753   1.408       .  A
C1753      C1754   1.402       .  A
C1753      C1760   1.516       .  S
C1754      C1755   1.409       .  A
C1754      H1759   1.083       .  S
C1755      C1756   1.423       .  A
C1756      C1757   1.528       .  S
C1757      F1761   1.385       .  S
C1757      F1762   1.382       .  S
C1757      F1763   1.380       .  S
C1760      F1764   1.382       .  S
C1760      F1765   1.380       .  S
C1760      F1766   1.384       .  S
C1767      C1768   1.415       .  A
C1767      C1772   1.417       .  A
C1767      H1774   1.082       .  S
C1768      C1769   1.427       .  A
C1769      C1770   1.429       .  A
C1769      C1776   1.516       .  S
C1770      C1771   1.410       .  A
C1770      H1775   1.082       .  S
C1771      C1772   1.417       .  A
C1772      C1773   1.519       .  S
C1773      F1777   1.383       .  S
C1773      F1778   1.383       .  S
C1773      F1779   1.383       .  S
C1776      F1780   1.381       .  S
C1776      F1781   1.383       .  S
C1776      F1782   1.384       .  S
C1783      C1784   1.411       .  A
C1783      C1788   1.401       .  A
C1783      H1790   1.084       .  S
C1784      C1785   1.421       .  A
C1785      C1786   1.389       .  A
C1785      C1792   1.529       .  S
C1786      C1787   1.400       .  A
C1786      H1791   1.079       .  S
C1787      C1788   1.408       .  A
C1788      C1789   1.517       .  S
C1789      F1793   1.383       .  S
C1789      F1794   1.379       .  S
C1789      F1795   1.384       .  S
C1792      F1796   1.384       .  S
C1792      F1797   1.383       .  S
C1792      F1798   1.379       .  S
C1799      C1800   1.415       .  A
C1799      C1804   1.432       .  A
C1799      H1806   1.084       .  S
C1800      C1801   1.416       .  A
C1801      C1802   1.417       .  A
C1801      C1808   1.523       .  S
C1802      C1803   1.421       .  A
C1802      H1807   1.072       .  S
C1803      C1804   1.437       .  A
C1804      C1805   1.518       .  S
C1805      F1809   1.384       .  S
C1805      F1810   1.372       .  S
C1805      F1811   1.383       .  S
C1808      F1812   1.380       .  S
C1808      F1813   1.383       .  S
C1808      F1814   1.382       .  S
C1815      C1816   1.391       .  A
C1815      C1820   1.409       .  A
C1815      H1822   1.083       .  S
C1816      C1817   1.425       .  A
C1817      C1818   1.424       .  A
C1817      C1824   1.516       .  S
C1818      C1819   1.408       .  A
C1818      H1823   1.080       .  S
C1819      C1820   1.441       .  A
C1820      C1821   1.522       .  S
C1821      F1825   1.385       .  S
C1821      F1826   1.383       .  S
C1821      F1827   1.379       .  S
C1824      F1828   1.380       .  S
C1824      F1829   1.383       .  S
C1824      F1830   1.384       .  S
C1831      C1832   1.404       .  A
C1831      C1836   1.391       .  A
C1831      H1838   1.084       .  S
C1832      C1833   1.429       .  A
C1833      C1834   1.407       .  A
C1833      C1840   1.524       .  S
C1834      C1835   1.405       .  A
C1834      H1839   1.082       .  S
C1835      C1836   1.418       .  A
C1836      C1837   1.525       .  S
C1837      F1841   1.386       .  S
C1837      F1842   1.377       .  S
C1837      F1843   1.385       .  S
C1840      F1844   1.382       .  S
C1840      F1845   1.383   1_556  S
C1840      F1846   1.385       .  S
C1847      C1848   1.408       .  A
C1847      C1852   1.410       .  A
C1847      H1854   1.082       .  S
C1848      C1849   1.424       .  A
C1849      C1850   1.405       .  A
C1849      C1856   1.524       .  S
C1850      C1851   1.399       .  A
C1850      H1855   1.081       .  S
C1851      C1852   1.409       .  A
C1852      C1853   1.515       .  S
C1853      F1857   1.376       .  S
C1853      F1858   1.381       .  S
C1853      F1859   1.383       .  S
C1856      F1860   1.382       .  S
C1856      F1861   1.384       .  S
C1856      F1862   1.384       .  S
C1863      C1864   1.420       .  A
C1863      C1868   1.396       .  A
C1863      H1870   1.082       .  S
C1864      C1865   1.407       .  A
C1865      C1866   1.410       .  A
C1865      C1872   1.514       .  S
C1866      C1867   1.414       .  A
C1866      H1871   1.083       .  S
C1867      C1868   1.407       .  A
C1868      C1869   1.525       .  S
C1869      F1873   1.385       .  S
C1869      F1874   1.380       .  S
C1869      F1875   1.383       .  S
C1872      F1876   1.383       .  S
C1872      F1877   1.384       .  S
C1872      F1878   1.383       .  S
C1879      C1880   1.402       .  A
C1879      C1884   1.409       .  A
C1879      H1886   1.083       .  S
C1880      C1881   1.411       .  A
C1881      C1882   1.406       .  A
C1881      C1888   1.517       .  S
C1882      C1883   1.410       .  A
C1882      H1887   1.082       .  S
C1883      C1884   1.426       .  A
C1884      C1885   1.519       .  S
C1885      F1889   1.385       .  S
C1885      F1890   1.378       .  S
C1885      F1891   1.383       .  S
C1888      F1892   1.378       .  S
C1888      F1893   1.384       .  S
C1888      F1894   1.374       .  S
C1895      C1896   1.408       .  A
C1895      C1900   1.414       .  A
C1895      H1902   1.084       .  S
C1896      C1897   1.433       .  A
C1897      C1898   1.398       .  A
C1897      C1904   1.513       .  S
C1898      C1899   1.390       .  A
C1898      H1903   1.083       .  S
C1899      C1900   1.424       .  A
C1900      C1901   1.518       .  S
C1901      F1905   1.384       .  S
C1901      F1906   1.383       .  S
C1901      F1907   1.382       .  S
C1904      F1908   1.383       .  S
C1904      F1909   1.371       .  S
C1904      F1910   1.385       .  S
C1911      C1912   1.396       .  A
C1911      C1916   1.401       .  A
C1911      H1918   1.083       .  S
C1912      C1913   1.410       .  A
C1913      C1914   1.404       .  A
C1913      C1920   1.515       .  S
C1914      C1915   1.399       .  A
C1914      H1919   1.083       .  S
C1915      C1916   1.419       .  A
C1916      C1917   1.519       .  S
C1917      F1921   1.385       .  S
C1917      F1922   1.377       .  S
C1917      F1923   1.380       .  S
C1920      F1924   1.383       .  S
C1920      F1925   1.382       .  S
C1920      F1926   1.374       .  S
C1927      C1928   1.409       .  A
C1927      C1932   1.417       .  A
C1927      H1934   1.083       .  S
C1928      C1929   1.408       .  A
C1929      C1930   1.390       .  A
C1929      C1936   1.509       .  S
C1930      C1931   1.397       .  A
C1930      H1935   1.084       .  S
C1931      C1932   1.414       .  A
C1932      C1933   1.511       .  S
C1933      F1937   1.380       .  S
C1933      F1938   1.383       .  S
C1933      F1939   1.382       .  S
C1936      F1940   1.385       .  S
C1936      F1941   1.383       .  S
C1936      F1942   1.365       .  S
C1943      C1944   1.401       .  A
C1943      C1948   1.404       .  A
C1943      H1950   1.083       .  S
C1944      C1945   1.411       .  A
C1945      C1946   1.405       .  A
C1945      C1952   1.516       .  S
C1946      C1947   1.403       .  A
C1946      H1951   1.081       .  S
C1947      C1948   1.416       .  A
C1948      C1949   1.520       .  S
C1949      F1953   1.385       .  S
C1949      F1954   1.381       .  S
C1949      F1955   1.383       .  S
C1952      F1956   1.382       .  S
C1952      F1957   1.380       .  S
C1952      F1958   1.381       .  S
C1959      C1960   1.398       .  A
C1959      C1964   1.398       .  A
C1959      H1966   1.083       .  S
C1960      C1961   1.425       .  A
C1961      C1962   1.414       .  A
C1961      C1968   1.520       .  S
C1962      C1963   1.408       .  A
C1962      H1967   1.083       .  S
C1963      C1964   1.430       .  A
C1964      C1965   1.525       .  S
C1965      F1969   1.385       .  S
C1965      F1970   1.383       .  S
C1965      F1971   1.379       .  S
C1968      F1972   1.382       .  S
C1968      F1973   1.384       .  S
C1968      F1974   1.384       .  S
C1975      C1976   1.395       .  A
C1975      C1980   1.397       .  A
C1975      H1982   1.086       .  S
C1976      C1977   1.409       .  A
C1977      C1978   1.401       .  A
C1977      C1984   1.517       .  S
C1978      C1979   1.404       .  A
C1978      H1983   1.084       .  S
C1979      C1980   1.416       .  A
C1980      C1981   1.509       .  S
C1981      F1985   1.379       .  S
C1981      F1986   1.383       .  S
C1981      F1987   1.378       .  S
C1984      F1988   1.383   1_455  S
C1984      F1989   1.382       .  S
C1984      F1990   1.384       .  S
C1991      C1992   1.416       .  A
C1991      C1996   1.398       .  A
C1991      H1998   1.081       .  S
C1992      C1993   1.413       .  A
C1993      C1994   1.416       .  A
C1993      C2000   1.515       .  S
C1994      C1995   1.415       .  A
C1994      H1999   1.083       .  S
C1995      C1996   1.411       .  A
C1996      C1997   1.524       .  S
C1997      F2001   1.385       .  S
C1997      F2002   1.380       .  S
C1997      F2003   1.383       .  S
C2000      F2004   1.383       .  S
C2000      F2005   1.382       .  S
C2000      F2006   1.384       .  S
C2007      C2008   1.416       .  A
C2007      C2012   1.417       .  A
C2007      H2014   1.083       .  S
C2008      C2009   1.415       .  A
C2009      C2010   1.404       .  A
C2009      C2016   1.523       .  S
C2010      C2011   1.415       .  A
C2010      H2015   1.076       .  S
C2011      C2012   1.413       .  A
C2012      C2013   1.509       .  S
C2013      F2017   1.385       .  S
C2013      F2018   1.382       .  S
C2013      F2019   1.379       .  S
C2016      F2020   1.381       .  S
C2016      F2021   1.383       .  S
C2016      F2022   1.382       .  S
C2023      C2024   1.405       .  A
C2023      C2028   1.399       .  A
C2023      H2030   1.082       .  S
C2024      C2025   1.433       .  A
C2025      C2026   1.413       .  A
C2025      C2032   1.524       .  S
C2026      C2027   1.400       .  A
C2026      H2031   1.081       .  S
C2027      C2028   1.414       .  A
C2028      C2029   1.517       .  S
C2029      F2033   1.385       .  S
C2029      F2034   1.381       .  S
C2029      F2035   1.382       .  S
C2032      F2036   1.383       .  S
C2032      F2037   1.381       .  S
C2032      F2038   1.385       .  S
C2039      C2040   1.416       .  A
C2039      C2044   1.432       .  A
C2039      H2046   1.082       .  S
C2040      C2041   1.442       .  A
C2041      C2042   1.413       .  A
C2041      C2048   1.518       .  S
C2042      C2043   1.392       .  A
C2042      H2047   1.083       .  S
C2043      C2044   1.423       .  A
C2044      C2045   1.515       .  S
C2045      F2049   1.382       .  S
C2045      F2050   1.383       .  S
C2045      F2051   1.382       .  S
C2048      F2052   1.378       .  S
C2048      F2053   1.382       .  S
C2048      F2054   1.385       .  S
C2055      C2056   1.406       .  A
C2055      C2060   1.384       .  A
C2055      H2062   1.083       .  S
C2056      C2057   1.428       .  A
C2057      C2058   1.408       .  A
C2057      C2064   1.519       .  S
C2058      C2059   1.400       .  A
C2058      H2063   1.084       .  S
C2059      C2060   1.409       .  A
C2060      C2061   1.519       .  S
C2061      F2065   1.384       .  S
C2061      F2066   1.381       .  S
C2061      F2067   1.382       .  S
C2064      F2068   1.382       .  S
C2064      F2069   1.384       .  S
C2064      F2070   1.380       .  S
C2071      C2072   1.388       .  A
C2071      C2076   1.406       .  A
C2071      H2078   1.084       .  S
C2072      C2073   1.428       .  A
C2073      C2074   1.432       .  A
C2073      C2080   1.516       .  S
C2074      C2075   1.413       .  A
C2074      H2079   1.082       .  S
C2075      C2076   1.433       .  A
C2076      C2077   1.505       .  S
C2077      F2081   1.386       .  S
C2077      F2082   1.381       .  S
C2077      F2083   1.383       .  S
C2080      F2084   1.381       .  S
C2080      F2085   1.381       .  S
C2080      F2086   1.382       .  S
C2087      C2088   1.403       .  A
C2087      C2092   1.412       .  A
C2087      H2094   1.083       .  S
C2088      C2089   1.409       .  A
C2089      C2090   1.395       .  A
C2089      C2096   1.514       .  S
C2090      C2091   1.403       .  A
C2090      H2095   1.084       .  S
C2091      C2092   1.420       .  A
C2092      C2093   1.518       .  S
C2093      F2097   1.383       .  S
C2093      F2098   1.379       .  S
C2093      F2099   1.382       .  S
C2096      F2100   1.384       .  S
C2096      F2101   1.383       .  S
C2096      F2102   1.383       .  S
C2103      C2104   1.416       .  A
C2103      C2108   1.436       .  A
C2103      H2110   1.084       .  S
C2104      C2105   1.454       .  A
C2105      C2106   1.411       .  A
C2105      C2112   1.519       .  S
C2106      C2107   1.391       .  A
C2106      H2111   1.082       .  S
C2107      C2108   1.433       .  A
C2108      C2109   1.513       .  S
C2109      F2113   1.385       .  S
C2109      F2114   1.382       .  S
C2109      F2115   1.382       .  S
C2112      F2116   1.383       .  S
C2112      F2117   1.346       .  S
C2112      F2118   1.385       .  S
C2119      C2120   1.397       .  A
C2119      C2124   1.406       .  A
C2119      H2126   1.085       .  S
C2120      C2121   1.432       .  A
C2121      C2122   1.390       .  A
C2121      C2128   1.528       .  S
C2122      C2123   1.394       .  A
C2122      H2127   1.080       .  S
C2123      C2124   1.434       .  A
C2124      C2125   1.520       .  S
C2125      F2129   1.381       .  S
C2125      F2130   1.384       .  S
C2125      F2131   1.383       .  S
C2128      F2132   1.385       .  S
C2128      F2133   1.378       .  S
C2128      F2134   1.381       .  S
C2135      C2136   1.386       .  A
C2135      C2140   1.399       .  A
C2135      H2142   1.087       .  S
C2136      C2137   1.424       .  A
C2137      C2138   1.426       .  A
C2137      C2144   1.516       .  S
C2138      C2139   1.412       .  A
C2138      H2143   1.082       .  S
C2139      C2140   1.444       .  A
C2140      C2141   1.525       .  S
C2141      F2145   1.385       .  S
C2141      F2146   1.380       .  S
C2141      F2147   1.363       .  S
C2144      F2148   1.381       .  S
C2144      F2149   1.381       .  S
C2144      F2150   1.382       .  S
C2151      C2152   1.401       .  A
C2151      C2156   1.410       .  A
C2151      H2158   1.082       .  S
C2152      C2153   1.416       .  A
C2153      C2154   1.405       .  A
C2153      C2160   1.520       .  S
C2154      C2155   1.408       .  A
C2154      H2159   1.084       .  S
C2155      C2156   1.428       .  A
C2156      C2157   1.514       .  S
C2157      F2161   1.385       .  S
C2157      F2162   1.381       .  S
C2157      F2163   1.378       .  S
C2160      F2164   1.369       .  S
C2160      F2165   1.384       .  S
C2160      F2166   1.381       .  S
C2167      C2168   1.417       .  A
C2167      C2172   1.416       .  A
C2167      H2174   1.082       .  S
C2168      C2169   1.425       .  A
C2169      C2170   1.431       .  A
C2169      C2176   1.515       .  S
C2170      C2171   1.415       .  A
C2170      H2175   1.082       .  S
C2171      C2172   1.420       .  A
C2172      C2173   1.523       .  S
C2173      F2177   1.384       .  S
C2173      F2178   1.380       .  S
C2173      F2179   1.383       .  S
C2176      F2180   1.382       .  S
C2176      F2181   1.383       .  S
C2176      F2182   1.384       .  S
C2183      C2184   1.414       .  A
C2183      C2188   1.416       .  A
C2183      H2190   1.075       .  S
C2184      C2185   1.428       .  A
C2185      C2186   1.431       .  A
C2185      C2192   1.518       .  S
C2186      C2187   1.412       .  A
C2186      H2191   1.083       .  S
C2187      C2188   1.416       .  A
C2188      C2189   1.520       .  S
C2189      F2193   1.384       .  S
C2189      F2194   1.383   1_565  S
C2189      F2195   1.382       .  S
C2192      F2196   1.380       .  S
C2192      F2197   1.383       .  S
C2192      F2198   1.384       .  S
C2199      C2200   1.397       .  A
C2199      C2204   1.391       .  A
C2199      H2206   1.083       .  S
C2200      C2201   1.415       .  A
C2201      C2202   1.407       .  A
C2201      C2208   1.516       .  S
C2202      C2203   1.402       .  A
C2202      H2207   1.083       .  S
C2203      C2204   1.410       .  A
C2204      C2205   1.512       .  S
C2205      F2209   1.384       .  S
C2205      F2210   1.381       .  S
C2205      F2211   1.384       .  S
C2208      F2212   1.383       .  S
C2208      F2213   1.382       .  S
C2208      F2214   1.384       .  S
C2215      C2216   1.395       .  A
C2215      C2220   1.397       .  A
C2215      H2222   1.076       .  S
C2216      C2217   1.409       .  A
C2217      C2218   1.399       .  A
C2217      C2224   1.510       .  S
C2218      C2219   1.402       .  A
C2218      H2223   1.084       .  S
C2219      C2220   1.421       .  A
C2220      C2221   1.523   1_565  S
C2221      F2225   1.385       .  S
C2221      F2226   1.381   1_545  S
C2221      F2227   1.382       .  S
C2224      F2228   1.385       .  S
C2224      F2229   1.371       .  S
C2224      F2230   1.382       .  S
C2231      C2232   1.413       .  A
C2231      C2236   1.428       .  A
C2231      H2238   1.081       .  S
C2232      C2233   1.446       .  A
C2233      C2234   1.409       .  A
C2233      C2240   1.522       .  S
C2234      C2235   1.387       .  A
C2234      H2239   1.083       .  S
C2235      C2236   1.421       .  A
C2236      C2237   1.515       .  S
C2237      F2241   1.384       .  S
C2237      F2242   1.383       .  S
C2237      F2243   1.382       .  S
C2240      F2244   1.378       .  S
C2240      F2245   1.381       .  S
C2240      F2246   1.385       .  S
C2247      C2248   1.409       .  A
C2247      C2252   1.410       .  A
C2247      H2254   1.082       .  S
C2248      C2249   1.425       .  A
C2249      C2250   1.396       .  A
C2249      C2256   1.526       .  S
C2250      C2251   1.398       .  A
C2250      H2255   1.080       .  S
C2251      C2252   1.414       .  A
C2252      C2253   1.515       .  S
C2253      F2257   1.384       .  S
C2253      F2258   1.380       .  S
C2253      F2259   1.383       .  S
C2256      F2260   1.382       .  S
C2256      F2261   1.383       .  S
C2256      F2262   1.385       .  S
C2263      C2264   1.411       .  A
C2263      C2268   1.432       .  A
C2263      H2270   1.083       .  S
C2264      C2265   1.443       .  A
C2265      C2266   1.418       .  A
C2265      C2272   1.521       .  S
C2266      C2267   1.398       .  A
C2266      H2271   1.082       .  S
C2267      C2268   1.432       .  A
C2268      C2269   1.516       .  S
C2269      F2273   1.385       .  S
C2269      F2274   1.384       .  S
C2269      F2275   1.377       .  S
C2272      F2276   1.376       .  S
C2272      F2277   1.383       .  S
C2272      F2278   1.385       .  S
C2279      C2280   1.402       .  A
C2279      C2284   1.391       .  A
C2279      H2286   1.082       .  S
C2280      C2281   1.406       .  A
C2281      C2282   1.402       .  A
C2281      C2288   1.516       .  S
C2282      C2283   1.410       .  A
C2282      H2287   1.083       .  S
C2283      C2284   1.417       .  A
C2284      C2285   1.526       .  S
C2285      F2289   1.385       .  S
C2285      F2290   1.381       .  S
C2285      F2291   1.383       .  S
C2288      F2292   1.380       .  S
C2288      F2293   1.381       .  S
C2288      F2294   1.384       .  S
C2295      C2296   1.402       .  A
C2295      C2300   1.402       .  A
C2295      H2302   1.085       .  S
C2296      C2297   1.423       .  A
C2297      C2298   1.432       .  A
C2297      C2304   1.514       .  S
C2298      C2299   1.414       .  A
C2298      H2303   1.079       .  S
C2299      C2300   1.418       .  A
C2300      C2301   1.506       .  S
C2301      F2305   1.386       .  S
C2301      F2306   1.376       .  S
C2301      F2307   1.381       .  S
C2304      F2308   1.382       .  S
C2304      F2309   1.383       .  S
C2304      F2310   1.379       .  S
C2311      C2312   1.398       .  A
C2311      C2316   1.401       .  A
C2311      H2318   1.085       .  S
C2312      C2313   1.408       .  A
C2313      C2314   1.404       .  A
C2313      C2320   1.515       .  S
C2314      C2315   1.405       .  A
C2314      H2319   1.082       .  S
C2315      C2316   1.423       .  A
C2316      C2317   1.522       .  S
C2317      F2321   1.384       .  S
C2317      F2322   1.383       .  S
C2317      F2323   1.378       .  S
C2320      F2324   1.383       .  S
C2320      F2325   1.383       .  S
C2320      F2326   1.381       .  S
C2327      C2328   1.413       .  A
C2327      C2332   1.411       .  A
C2327      H2334   1.082       .  S
C2328      C2329   1.423       .  A
C2329      C2330   1.424       .  A
C2329      C2336   1.516       .  S
C2330      C2331   1.412       .  A
C2330      H2335   1.083       .  S
C2331      C2332   1.422       .  A
C2332      C2333   1.524       .  S
C2333      F2337   1.384       .  S
C2333      F2338   1.384       .  S
C2333      F2339   1.381       .  S
C2336      F2340   1.381       .  S
C2336      F2341   1.382       .  S
C2336      F2342   1.385       .  S
C2343      C2344   1.398       .  A
C2343      C2348   1.391       .  A
C2343      H2350   1.084       .  S
C2344      C2345   1.409       .  A
C2345      C2346   1.398       .  A
C2345      C2352   1.519       .  S
C2346      C2347   1.400       .  A
C2346      H2351   1.082       .  S
C2347      C2348   1.409       .  A
C2348      C2349   1.516       .  S
C2349      F2353   1.385       .  S
C2349      F2354   1.383       .  S
C2349      F2355   1.383       .  S
C2352      F2356   1.382   1_455  S
C2352      F2357   1.383       .  S
C2352      F2358   1.379       .  S
C2359      C2360   1.406       .  A
C2359      C2364   1.392       .  A
C2359      H2366   1.085       .  S
C2360      C2361   1.397       .  A
C2361      C2362   1.385       .  A
C2361      C2368   1.518       .  S
C2362      C2363   1.408       .  A
C2362      H2367   1.084       .  S
C2363      C2364   1.405       .  A
C2364      C2365   1.518       .  S
C2365      F2369   1.384       .  S
C2365      F2370   1.381       .  S
C2365      F2371   1.383       .  S
C2368      F2372   1.383       .  S
C2368      F2373   1.382       .  S
C2368      F2374   1.385       .  S
C2375      C2376   1.409       .  A
C2375      C2380   1.395       .  A
C2375      H2382   1.083       .  S
C2376      C2377   1.399       .  A
C2377      C2378   1.384       .  A
C2377      C2384   1.522       .  S
C2378      C2379   1.413       .  A
C2378      H2383   1.083       .  S
C2379      C2380   1.405       .  A
C2380      C2381   1.514       .  S
C2381      F2385   1.385       .  S
C2381      F2386   1.376       .  S
C2381      F2387   1.383       .  S
C2384      F2388   1.381       .  S
C2384      F2389   1.383       .  S
C2384      F2390   1.385       .  S
C2391      C2392   1.396       .  A
C2391      C2396   1.416       .  A
C2391      H2398   1.082       .  S
C2392      C2393   1.429       .  A
C2393      C2394   1.433       .  A
C2393      C2400   1.518       .  S
C2394      C2395   1.412       .  A
C2394      H2399   1.082       .  S
C2395      C2396   1.441       .  A
C2396      C2397   1.522       .  S
C2397      F2401   1.383       .  S
C2397      F2402   1.382       .  S
C2397      F2403   1.381       .  S
C2400      F2404   1.381       .  S
C2400      F2405   1.383       .  S
C2400      F2406   1.385       .  S
C2407      C2408   1.421       .  A
C2407      C2412   1.432       .  A
C2407      H2414   1.082       .  S
C2408      C2409   1.428       .  A
C2409      C2410   1.417       .  A
C2409      C2416   1.524       .  S
C2410      C2411   1.412       .  A
C2410      H2415   1.078       .  S
C2411      C2412   1.420       .  A
C2412      C2413   1.515       .  S
C2413      F2417   1.384       .  S
C2413      F2418   1.376       .  S
C2413      F2419   1.381       .  S
C2416      F2420   1.383       .  S
C2416      F2421   1.381       .  S
C2416      F2422   1.382       .  S
C2423      C2424   1.409       .  A
C2423      C2428   1.406       .  A
C2423      H2430   1.083       .  S
C2424      C2425   1.409       .  A
C2425      C2426   1.398       .  A
C2425      C2432   1.524       .  S
C2426      C2427   1.415       .  A
C2426      H2431   1.080       .  S
C2427      C2428   1.415       .  A
C2428      C2429   1.518       .  S
C2429      F2433   1.385       .  S
C2429      F2434   1.383       .  S
C2429      F2435   1.384       .  S
C2432      F2436   1.380       .  S
C2432      F2437   1.384       .  S
C2432      F2438   1.383       .  S
C2439      C2440   1.403       .  A
C2439      C2444   1.403       .  A
C2439      H2446   1.085       .  S
C2440      C2441   1.429       .  A
C2441      C2442   1.391       .  A
C2441      C2448   1.532       .  S
C2442      C2443   1.401       .  A
C2442      H2447   1.080       .  S
C2443      C2444   1.419       .  A
C2444      C2445   1.518       .  S
C2445      F2449   1.384       .  S
C2445      F2450   1.383       .  S
C2445      F2451   1.383       .  S
C2448      F2452   1.380       .  S
C2448      F2453   1.377       .  S
C2448      F2454   1.385       .  S
C2455      C2456   1.405       .  A
C2455      C2460   1.404       .  A
C2455      H2462   1.083       .  S
C2456      C2457   1.428       .  A
C2457      C2458   1.408       .  A
C2457      C2464   1.524       .  S
C2458      C2459   1.399       .  A
C2458      H2463   1.083       .  S
C2459      C2460   1.409       .  A
C2460      C2461   1.515       .  S
C2461      F2465   1.373       .  S
C2461      F2466   1.379       .  S
C2461      F2467   1.383       .  S
C2464      F2468   1.381       .  S
C2464      F2469   1.383       .  S
C2464      F2470   1.385       .  S
C2471      C2472   1.425       .  A
C2471      C2476   1.405       .  A
C2471      H2478   1.080       .  S
C2472      C2473   1.430       .  A
C2473      C2474   1.422       .  A
C2473      C2480   1.518       .  S
C2474      C2475   1.411       .  A
C2474      H2479   1.085       .  S
C2475      C2476   1.408       .  A
C2476      C2477   1.523       .  S
C2477      F2481   1.384       .  S
C2477      F2482   1.380       .  S
C2477      F2483   1.384       .  S
C2480      F2484   1.384       .  S
C2480      F2485   1.383       .  S
C2480      F2486   1.374       .  S
C2487      C2488   1.410       .  A
C2487      C2492   1.427       .  A
C2487      H2494   1.082       .  S
C2488      C2489   1.414       .  A
C2489      C2490   1.415       .  A
C2489      C2496   1.519       .  S
C2490      C2491   1.415       .  A
C2490      H2495   1.080       .  S
C2491      C2492   1.428       .  A
C2492      C2493   1.517       .  S
C2493      F2497   1.384       .  S
C2493      F2498   1.379       .  S
C2493      F2499   1.381       .  S
C2496      F2500   1.383       .  S
C2496      F2501   1.383       .  S
C2496      F2502   1.381       .  S
C2503      C2504   1.397       .  A
C2503      C2508   1.419       .  A
C2503      H2510   1.083       .  S
C2504      C2505   1.425       .  A
C2505      C2506   1.437       .  A
C2505      C2512   1.512       .  S
C2506      C2507   1.415       .  A
C2506      H2511   1.082       .  S
C2507      C2508   1.440       .  A
C2508      C2509   1.521       .  S
C2509      F2513   1.386       .  S
C2509      F2514   1.369       .  S
C2509      F2515   1.380       .  S
C2512      F2516   1.382       .  S
C2512      F2517   1.382       .  S
C2512      F2518   1.379       .  S
C2519      C2520   1.397       .  A
C2519      C2524   1.388       .  A
C2519      H2526   1.084       .  S
C2520      C2521   1.415       .  A
C2521      C2522   1.386       .  A
C2521      C2528   1.522       .  S
C2522      C2523   1.394       .  A
C2522      H2527   1.085       .  S
C2523      C2524   1.409       .  A
C2524      C2525   1.512       .  S
C2525      F2529   1.380       .  S
C2525      F2530   1.377       .  S
C2525      F2531   1.385       .  S
C2528      F2532   1.382       .  S
C2528      F2533   1.382       .  S
C2528      F2534   1.384       .  S
C2535      C2536   1.399       .  A
C2535      C2540   1.395       .  A
C2535      H2542   1.079       .  S
C2536      C2537   1.427       .  A
C2537      C2538   1.397       .  A
C2537      C2544   1.522       .  S
C2538      C2539   1.397       .  A
C2538      H2543   1.085       .  S
C2539      C2540   1.431       .  A
C2540      C2541   1.534       .  S
C2541      F2545   1.378       .  S
C2541      F2546   1.379       .  S
C2541      F2547   1.385       .  S
C2544      F2548   1.384       .  S
C2544      F2549   1.383       .  S
C2544      F2550   1.382       .  S
C2551      C2552   1.394       .  A
C2551      C2556   1.416       .  A
C2551      H2558   1.083       .  S
C2552      C2553   1.421       .  A
C2553      C2554   1.430       .  A
C2553      C2560   1.514       .  S
C2554      C2555   1.415       .  A
C2554      H2559   1.080       .  S
C2555      C2556   1.441       .  A
C2556      C2557   1.520       .  S
C2557      F2561   1.385       .  S
C2557      F2562   1.380       .  S
C2557      F2563   1.382       .  S
C2560      F2564   1.383       .  S
C2560      F2565   1.384       .  S
C2560      F2566   1.384       .  S
C2567      C2568   1.415       .  A
C2567      C2572   1.426       .  A
C2567      H2574   1.082       .  S
C2568      C2569   1.425       .  A
C2569      C2570   1.410       .  A
C2569      C2576   1.524       .  S
C2570      C2571   1.411       .  A
C2570      H2575   1.083       .  S
C2571      C2572   1.423       .  A
C2572      C2573   1.516       .  S
C2573      F2577   1.384       .  S
C2573      F2578   1.383       .  S
C2573      F2579   1.380       .  S
C2576      F2580   1.383       .  S
C2576      F2581   1.382       .  S
C2576      F2582   1.385       .  S
C2583      C2584   1.414       .  A
C2583      C2588   1.407       .  A
C2583      H2590   1.083       .  S
C2584      C2585   1.419       .  A
C2585      C2586   1.390       .  A
C2585      C2592   1.529       .  S
C2586      C2587   1.402       .  A
C2586      H2591   1.076       .  S
C2587      C2588   1.410       .  A
C2588      C2589   1.518       .  S
C2589      F2593   1.383       .  S
C2589      F2594   1.380       .  S
C2589      F2595   1.384       .  S
C2592      F2596   1.383       .  S
C2592      F2597   1.379       .  S
C2592      F2598   1.384       .  S
C2599      C2600   1.402       .  A
C2599      C2604   1.397       .  A
C2599      H2606   1.084       .  S
C2600      C2601   1.406       .  A
C2601      C2602   1.395       .  A
C2601      C2608   1.514       .  S
C2602      C2603   1.399       .  A
C2602      H2607   1.084       .  S
C2603      C2604   1.409       .  A
C2604      C2605   1.518       .  S
C2605      F2609   1.384       .  S
C2605      F2610   1.383       .  S
C2605      F2611   1.380       .  S
C2608      F2612   1.382       .  S
C2608      F2613   1.383       .  S
C2608      F2614   1.379       .  S
