geometry optimzed in LAMMPS
_audit_creation_date              2020-12-01 
_audit_creation_method            'lammps2cif' 
_symmetry_space_group_name_H-M    'P1' 
_symmetry_Int_Tables_number       1 
_symmetry_cell_setting            triclinic 
loop_ 
_symmetry_equiv_pos_as_xyz 
  x,y,z 
_cell_length_a                    26.87072225 
_cell_length_b                    26.866354502224496 
_cell_length_c                    26.86095017386576 
_cell_angle_alpha                 90.07875858312877 
_cell_angle_beta                  90.14069536054929 
_cell_angle_gamma                 89.93769987093202 
loop_ 
_atom_site_label 
_atom_site_type_symbol 
_atom_site_fract_x 
_atom_site_fract_y 
_atom_site_fract_z 
_atom_site_charge 
O1          O  0.77143901  0.45062087  0.69919885    -0.74800
O2          O  0.69816068  0.55146225  0.76782329    -0.74900
O3          O  0.76929432  0.55159369  0.69745187    -0.74900
O4          O  0.69990347  0.45056914  0.76941734    -0.75000
O5          O  0.75801842  0.45227305  0.82889970    -0.74900
O6          O  0.82824066  0.55303413  0.75613611    -0.74900
O7          O  0.75628420  0.55288933  0.82732984    -0.74900
O8          O  0.83036953  0.45229518  0.75787844    -0.74900
Ni9        Ni  0.73268526  0.50096451  0.73137679     1.25400
Ni10       Ni  0.79536709  0.50271792  0.79470443     1.25400
C11         C  0.81275038  0.43479296  0.71712022     0.87300
C12         C  0.71512171  0.56862227  0.80896237     0.87300
C13         C  0.81010156  0.56892201  0.71491625     0.87300
C14         C  0.71726831  0.43497823  0.81100551     0.87500
O15         O  0.46784103  0.67894269  0.76734380    -0.74800
O16         O  0.56958385  0.74907285  0.69683296    -0.74900
O17         O  0.56888103  0.67842305  0.76811293    -0.74900
O18         O  0.46873055  0.74967417  0.69635746    -0.75000
O19         O  0.46881424  0.80907943  0.75454302    -0.74900
O20         O  0.56877531  0.73691420  0.82720224    -0.74900
O21         O  0.56929941  0.80841442  0.75506404    -0.74900
O22         O  0.46807281  0.73750244  0.82636155    -0.74900
Ni23       Ni  0.51877264  0.71194146  0.73013248     1.25400
Ni24       Ni  0.51876270  0.77509620  0.79294688     1.25400
C25         C  0.45125648  0.69660970  0.80838300     0.87300
C26         C  0.58580562  0.79046648  0.71404548     0.87300
C27         C  0.58525058  0.69580620  0.80942519     0.87300
C28         C  0.45247170  0.79110546  0.71344608     0.87500
O29         O  0.82879825  0.73834821  0.46987563    -0.74800
O30         O  0.75569790  0.81142025  0.56960231    -0.74900
O31         O  0.82798619  0.73930506  0.57077760    -0.74900
O32         O  0.75713706  0.81037329  0.46859644    -0.75000
O33         O  0.69874870  0.75136876  0.46810423    -0.74900
O34         O  0.76886430  0.68105193  0.57038390    -0.74900
O35         O  0.69768649  0.75208280  0.56915650    -0.74900
O36         O  0.76948518  0.68029502  0.46941233    -0.74900
Ni37       Ni  0.79454222  0.77703057  0.51977500     1.25400
Ni38       Ni  0.73166063  0.71419884  0.51930267     1.25400
C39         C  0.81085030  0.69731786  0.45319973     0.87300
C40         C  0.71448721  0.79353342  0.58566511     0.87300
C41         C  0.81011467  0.69823880  0.58708293     0.87300
C42         C  0.71645074  0.79228795  0.45139639     0.87500
C43         C  0.37499088  0.89193700  0.37124290     0.79800
N44         N  0.40932544  0.86669239  0.34385646    -0.78500
C45         C  0.41672851  0.81719744  0.35089591     0.82200
N46         N  0.38989137  0.79274344  0.38588804    -0.78400
C47         C  0.35473571  0.81705793  0.41272207     0.82300
N48         N  0.34751212  0.86655407  0.40539844    -0.80200
C49         C  0.37531074  0.10856153  0.37616590     0.79800
N50         N  0.40962399  0.13311158  0.34811431    -0.78500
C51         C  0.41748071  0.18267161  0.35467580     0.82200
N52         N  0.39116698  0.20779587  0.38971281    -0.78400
C53         C  0.35609710  0.18408633  0.41699625     0.82300
N54         N  0.34835305  0.13467852  0.41009143    -0.80200
O55         O  0.57235295  0.26187768  0.21220425    -0.74800
O56         O  0.47196407  0.19054464  0.28499635    -0.74900
O57         O  0.47138240  0.26135229  0.21205976    -0.74900
O58         O  0.57267541  0.19085234  0.28482890    -0.75000
O59         O  0.57248875  0.25072962  0.34250045    -0.74900
O60         O  0.47131536  0.32052009  0.27044743    -0.74900
O61         O  0.47175147  0.25069201  0.34238503    -0.74900
O62         O  0.57225883  0.32078456  0.27086503    -0.74900
Ni63       Ni  0.52209593  0.22399458  0.24636299     1.25400
Ni64       Ni  0.52194385  0.28775905  0.30852598     1.25400
C65         C  0.58890396  0.30303235  0.22992735     0.87300
C66         C  0.45553342  0.20906721  0.32581428     0.87300
C67         C  0.45464350  0.30251461  0.22950853     0.87300
C68         C  0.58904762  0.20926859  0.32574239     0.87500
C69         C  0.67185771  0.89264327  0.36750066     0.79800
N70         N  0.63665992  0.86770856  0.34062050    -0.78500
C71         C  0.62777530  0.81859125  0.34930786     0.82200
N72         N  0.65371253  0.79457318  0.38541692    -0.78400
C73         C  0.68932500  0.81864740  0.41186784     0.82300
N74         N  0.69820963  0.86748366  0.40282244    -0.80200
C75         C  0.67100377  0.10893815  0.37439483     0.79800
N76         N  0.69715266  0.13467695  0.40935713    -0.78500
C77         C  0.68822398  0.18370405  0.41757013     0.82200
N78         N  0.65289752  0.20746259  0.39043923    -0.78400
C79         C  0.62739508  0.18280381  0.35441437     0.82300
N80         N  0.63636743  0.13357212  0.34658955    -0.80200
O81         O  0.76870726  0.32265791  0.47344710    -0.74800
O82         O  0.69819409  0.25185194  0.57437476    -0.74900
O83         O  0.76930989  0.32244860  0.57440235    -0.74900
O84         O  0.69793205  0.25168963  0.47319339    -0.75000
O85         O  0.75646965  0.19267826  0.47326556    -0.74900
O86         O  0.82813413  0.26371382  0.57432329    -0.74900
O87         O  0.75623472  0.19236620  0.57410509    -0.74900
O88         O  0.82804828  0.26445488  0.47375074    -0.74900
Ni89       Ni  0.73145095  0.28920318  0.52386003     1.25400
Ni90       Ni  0.79432464  0.22614325  0.52383426     1.25400
C91         C  0.81005474  0.30548926  0.45725018     0.87300
C92         C  0.71548694  0.21063893  0.59091974     0.87300
C93         C  0.81046316  0.30478056  0.59088501     0.87300
C94         C  0.71554652  0.21061497  0.45652498     0.87500
C95         C  0.66189798  0.89428240  0.66519767     0.79800
N96         N  0.62897275  0.86772988  0.69281714    -0.78500
C97         C  0.62338401  0.81809800  0.68571826     0.82200
N98         N  0.65107192  0.79463725  0.65064268    -0.78400
C99         C  0.68538342  0.82015873  0.62379646     0.82300
N100        N  0.69070107  0.87006265  0.63107226    -0.80200
C101        C  0.66744884  0.11030031  0.67250531     0.79800
N102        N  0.69469566  0.13487233  0.63766266    -0.78500
C103        C  0.68767604  0.18435217  0.62985590     0.82200
N104        N  0.65290213  0.20928871  0.65673418    -0.78400
C105        C  0.62619088  0.18550964  0.69227466     0.82300
N106        N  0.63338982  0.13605974  0.69984067    -0.80200
C107        C  0.37309299  0.89262722  0.66348650     0.79800
N108        N  0.34524956  0.86679294  0.62990506    -0.78500
C109        C  0.35244150  0.81727581  0.62303666     0.82200
N110        N  0.38752703  0.79320667  0.65014507    -0.78400
C111        C  0.41443461  0.81797684  0.68496148     0.82300
N112        N  0.40733481  0.86765429  0.69144647    -0.80200
C113        C  0.37402868  0.10923738  0.67024784     0.79800
N114        N  0.34721462  0.13466633  0.63547459    -0.78500
C115        C  0.35489090  0.18393974  0.62782381     0.82200
N116        N  0.38976139  0.20817846  0.65514359    -0.78400
C117        C  0.41606742  0.18383683  0.69079178     0.82300
N118        N  0.40839619  0.13430372  0.69804103    -0.80200
O119        O  0.46922008  0.26631548  0.83207429    -0.74800
O120        O  0.57122869  0.19498559  0.76125347    -0.74900
O121        O  0.57040145  0.26739893  0.83254806    -0.74900
O122        O  0.47047896  0.19374150  0.76068345    -0.75000
O123        O  0.47002504  0.25254445  0.70210146    -0.74900
O124        O  0.56999600  0.32524830  0.77302911    -0.74900
O125        O  0.57098256  0.25371033  0.70258854    -0.74900
O126        O  0.46872075  0.32419734  0.77260108    -0.74900
Ni127      Ni  0.52034026  0.22854288  0.79884408     1.25400
Ni128      Ni  0.51988788  0.29098052  0.73556655     1.25400
C129        C  0.45200342  0.30689004  0.81370246     0.87300
C130        C  0.58774250  0.21268815  0.72018981     0.87300
C131        C  0.58696657  0.30817944  0.81419887     0.87300
C132        C  0.45401655  0.21115209  0.71937921     0.87500
O133        O  0.21471683  0.26488646  0.47101164    -0.74800
O134        O  0.28653757  0.19252079  0.57167905    -0.74900
O135        O  0.21424349  0.26357188  0.57163752    -0.74900
O136        O  0.28688804  0.19332673  0.47101674    -0.75000
O137        O  0.34506507  0.25256883  0.47172730    -0.74900
O138        O  0.27285973  0.32238136  0.57273985    -0.74900
O139        O  0.34439727  0.25204809  0.57283541    -0.74900
O140        O  0.27366383  0.32333294  0.47167073    -0.74900
Ni141      Ni  0.24849879  0.22642977  0.52125847     1.25400
Ni142      Ni  0.31105095  0.28965673  0.52226140     1.25400
C143        C  0.23247850  0.30611374  0.45491296     0.87300
C144        C  0.32719111  0.21068690  0.58893521     0.87300
C145        C  0.23171741  0.30451018  0.58871248     0.87300
C146        C  0.32793478  0.21133764  0.45496929     0.87500
C147        C  0.67264731  0.35370323  0.91316644     0.79800
N148        N  0.69915377  0.38815964  0.88731368    -0.78500
C149        C  0.68951773  0.39677791  0.83842282     0.82200
N150        N  0.65274559  0.37102872  0.81520010    -0.78400
C151        C  0.62649959  0.33591816  0.84012716     0.82300
N152        N  0.63653678  0.32740478  0.88897796    -0.80200
C153        C  0.67128140  0.34964047  0.12948534     0.79800
N154        N  0.69806356  0.38447081  0.15497915    -0.78500
C155        C  0.68961375  0.39278428  0.20417334     0.82200
N156        N  0.65394266  0.36635242  0.22799087    -0.78400
C157        C  0.62772427  0.33081430  0.20346740     0.82300
N158        N  0.63641569  0.32269630  0.15435631    -0.80200
O159        O  0.75741738  0.54849464  0.21284669    -0.74800
O160        O  0.82957060  0.44926638  0.28696042    -0.74900
O161        O  0.75846417  0.44782600  0.21396524    -0.74900
O162        O  0.82879641  0.54995918  0.28527589    -0.75000
O163        O  0.76936662  0.55054578  0.34316835    -0.74900
O164        O  0.69945289  0.44828648  0.27227670    -0.74900
O165        O  0.76964775  0.44954898  0.34433846    -0.74900
O166        O  0.69886347  0.54924399  0.27163396    -0.74900
Ni167      Ni  0.79572158  0.49885300  0.24764854     1.25400
Ni168      Ni  0.73227094  0.49939731  0.30987773     1.25400
C169        C  0.71624275  0.56514231  0.23031357     0.87300
C170        C  0.81129338  0.43324871  0.32799256     0.87300
C171        C  0.71727021  0.43144397  0.23136436     0.87300
C172        C  0.81060214  0.56699917  0.32592635     0.87500
C173        C  0.66605586  0.64749013  0.91075952     0.79800
N174        N  0.63111765  0.67468709  0.88595973    -0.78500
C175        C  0.62372239  0.66777195  0.83631373     0.82200
N176        N  0.65094463  0.63315223  0.81155551    -0.78400
C177        C  0.68648564  0.60660717  0.83566491     0.82300
N178        N  0.69379889  0.61380167  0.88508468    -0.80200
C179        C  0.66583413  0.64146054  0.12692823     0.79800
N180        N  0.69401350  0.60836029  0.15298163    -0.78500
C181        C  0.68786412  0.60286083  0.20276493     0.82200
N182        N  0.65335755  0.63078563  0.22677590    -0.78400
C183        C  0.62613897  0.66516491  0.20165710     0.82300
N184        N  0.63231161  0.67031839  0.15173861    -0.80200
C185        C  0.37127614  0.65009291  0.91037154     0.79800
N186        N  0.40567959  0.67681856  0.88471676    -0.78500
C187        C  0.41257951  0.66912328  0.83531099     0.82200
N188        N  0.38528581  0.63396292  0.81144346    -0.78400
C189        C  0.35012817  0.60764537  0.83629064     0.82300
N190        N  0.34328973  0.61561657  0.88583219    -0.80200
C191        C  0.37867382  0.64305736  0.12580223     0.79800
N192        N  0.41193474  0.67101713  0.15184267    -0.78500
C193        C  0.41757005  0.66485790  0.20161987     0.82200
N194        N  0.38975343  0.63030371  0.22556891    -0.78400
C195        C  0.35522916  0.60313908  0.20038843     0.82300
N196        N  0.34973341  0.60956211  0.15042648    -0.80200
O197        O  0.47122755  0.73475367  0.21060960    -0.74800
O198        O  0.57210591  0.80852843  0.28052277    -0.74900
O199        O  0.57178464  0.73508164  0.20989729    -0.74900
O200        O  0.47129071  0.80785537  0.28147128    -0.75000
O201        O  0.47187556  0.74941793  0.34044316    -0.74900
O202        O  0.57254275  0.67793293  0.27011763    -0.74900
O203        O  0.57276509  0.75037855  0.33975806    -0.74900
O204        O  0.47169838  0.67728487  0.27052217    -0.74900
Ni205      Ni  0.52155561  0.77368795  0.24345854     1.25400
Ni206      Ni  0.52226792  0.71178316  0.30730075     1.25400
C207        C  0.45514315  0.69380218  0.22895595     0.87300
C208        C  0.58899159  0.79140174  0.32174664     0.87300
C209        C  0.58842681  0.69431995  0.22837235     0.87300
C210        C  0.45510277  0.79034293  0.32277025     0.87500
C211        C  0.36636591  0.35138965  0.91292879     0.79800
N212        N  0.40234571  0.32522751  0.88849307    -0.78500
C213        C  0.41226742  0.33426995  0.83975168     0.82200
N214        N  0.38607953  0.36988602  0.81523889    -0.78400
C215        C  0.34942313  0.39558264  0.83867464     0.82300
N216        N  0.33983874  0.38631432  0.88742406    -0.80200
C217        C  0.37013021  0.34678660  0.12903469     0.79800
N218        N  0.40574523  0.32048546  0.15389261    -0.78500
C219        C  0.41547252  0.32988072  0.20272622     0.82200
N220        N  0.38970206  0.36606880  0.22677468    -0.78400
C221        C  0.35352771  0.39193293  0.20284255     0.82300
N222        N  0.34395754  0.38223780  0.15414365    -0.80200
C223        C  0.91250163  0.34981319  0.67238536     0.79800
N224        N  0.88845339  0.38601132  0.69867636    -0.78500
C225        C  0.83935711  0.39539205  0.69017497     0.82200
N226        N  0.81452089  0.36893882  0.65504748    -0.78400
C227        C  0.83774337  0.33239579  0.62929197     0.82300
N228        N  0.88660455  0.32303800  0.63794176    -0.80200
C229        C  0.12842070  0.35061498  0.66742219     0.79800
N230        N  0.15492010  0.32321923  0.63409049    -0.78500
C231        C  0.20408377  0.33191587  0.62690776     0.82200
N232        N  0.22713085  0.36803690  0.65349109    -0.78400
C233        C  0.20174460  0.39462382  0.68805287     0.82300
N234        N  0.15234916  0.38601255  0.69489433    -0.80200
O235        O  0.26991783  0.55081260  0.69711982    -0.74800
O236        O  0.33960624  0.45050588  0.77041520    -0.74900
O237        O  0.26927652  0.44988679  0.69882006    -0.74900
O238        O  0.33985946  0.55153911  0.76908510    -0.75000
O239        O  0.28112090  0.55244432  0.82767651    -0.74900
O240        O  0.20941751  0.45110849  0.75626564    -0.74900
O241        O  0.28071084  0.45142809  0.82882401    -0.74900
O242        O  0.21021739  0.55199849  0.75471068    -0.74900
Ni243      Ni  0.30671532  0.50063638  0.73186563     1.25400
Ni244      Ni  0.24319239  0.50180456  0.79400267     1.25400
C245        C  0.22868832  0.56791162  0.71370487     0.87300
C246        C  0.32179886  0.43436643  0.81149457     0.87300
C247        C  0.22783036  0.43379955  0.71582855     0.87300
C248        C  0.32221192  0.56871551  0.80988619     0.87500
C249        C  0.91169808  0.64842187  0.66716109     0.79800
N250        N  0.88597770  0.61445105  0.69425012    -0.78500
C251        C  0.83662076  0.60735740  0.68682976     0.82200
N252        N  0.81240747  0.63456181  0.65184836    -0.78400
C253        C  0.83704201  0.66975289  0.62537256     0.82300
N254        N  0.88671563  0.67647428  0.63293315    -0.80200
C255        C  0.12824810  0.64940016  0.66473514     0.79800
N256        N  0.15325360  0.61497947  0.69236546    -0.78500
C257        C  0.20240886  0.60631762  0.68481945     0.82200
N258        N  0.22691190  0.63220351  0.64912786    -0.78400
C259        C  0.20286939  0.66746757  0.62199798     0.82300
N260        N  0.15356842  0.67578830  0.62975579    -0.80200
O261        O  0.27279223  0.67783415  0.46656662    -0.74800
O262        O  0.34223950  0.74890185  0.56848247    -0.74900
O263        O  0.27144809  0.67787620  0.56755953    -0.74900
O264        O  0.34353170  0.74887159  0.46749514    -0.75000
O265        O  0.28510742  0.80797155  0.46685208    -0.74900
O266        O  0.21231105  0.73625860  0.56676101    -0.74900
O267        O  0.28391357  0.80812686  0.56751850    -0.74900
O268        O  0.21349041  0.73609670  0.46613915    -0.74900
Ni269      Ni  0.30956688  0.71132113  0.51755235     1.25400
Ni270      Ni  0.24656713  0.77424676  0.51677046     1.25400
C271        C  0.23161776  0.69507940  0.44985176     0.87300
C272        C  0.32470145  0.79019005  0.58460710     0.87300
C273        C  0.23005691  0.69525915  0.58357599     0.87300
C274        C  0.32632847  0.79009575  0.45081245     0.87500
C275        C  0.91209026  0.64817004  0.37273676     0.79800
N276        N  0.88682728  0.61334212  0.34592698    -0.78500
C277        C  0.83742081  0.60588817  0.35356810     0.82200
N278        N  0.81321685  0.63318933  0.38851101    -0.78400
C279        C  0.83764736  0.66876833  0.41485917     0.82300
N280        N  0.88705436  0.67595950  0.40705158    -0.80200
C281        C  0.12856223  0.64449963  0.37365200     0.79800
N282        N  0.15326518  0.61050561  0.34505606    -0.78500
C283        C  0.20337441  0.60432659  0.35042689     0.82200
N284        N  0.22848402  0.63185426  0.38456779    -0.78400
C285        C  0.20451159  0.66668282  0.41198962     0.82300
N286        N  0.15481807  0.67288580  0.40633700    -0.80200
C287        C  0.91309169  0.35607910  0.38121789     0.79800
N288        N  0.88707744  0.32792549  0.41415186    -0.79700
C289        C  0.83726934  0.33396955  0.41955044     0.82200
N290        N  0.81307267  0.36843762  0.39166159    -0.78400
C291        C  0.83811878  0.39570477  0.35741244     0.82300
N292        N  0.88806791  0.38959078  0.35243182    -0.80200
C293        C  0.12994961  0.35607819  0.37651670     0.79800
N294        N  0.15523611  0.38941590  0.34811478    -0.78500
C295        C  0.20502543  0.39566460  0.35391838     0.82200
N296        N  0.22976739  0.36878373  0.38888444    -0.78400
C297        C  0.20534343  0.33458408  0.41677705     0.82300
N298        N  0.15554900  0.32845393  0.41055483    -0.80200
O299        O  0.27319949  0.44963782  0.34125524    -0.74800
O300        O  0.34344724  0.54940261  0.26887757    -0.74900
O301        O  0.27217723  0.55035655  0.33948493    -0.74900
O302        O  0.34372347  0.44844575  0.27011234    -0.75000
O303        O  0.28505773  0.44759150  0.21116606    -0.74900
O304        O  0.21293397  0.54940459  0.28112372    -0.74900
O305        O  0.28535520  0.54849587  0.20938774    -0.74900
O306        O  0.21359310  0.44883341  0.28325191    -0.74900
Ni307      Ni  0.31018632  0.49954263  0.30693678     1.25400
Ni308      Ni  0.24711215  0.49856209  0.24403452     1.25400
C309        C  0.23179925  0.43306811  0.32454804     0.87300
C310        C  0.32640787  0.56522889  0.22728848     0.87300
C311        C  0.23061639  0.56623037  0.32213731     0.87300
C312        C  0.32607840  0.43118923  0.22924978     0.87500
C313        C  0.99376316  0.37941315  0.34142885    -0.12700
C314        C  0.96854154  0.35274585  0.37865379     0.04300
C315        C  0.99717458  0.32494474  0.41323298    -0.08000
C316        C  0.04920721  0.32501196  0.41028094    -0.08700
C317        C  0.07447381  0.35288207  0.37397311    -0.03300
C318        C  0.04583855  0.37971552  0.33870232     0.03500
N319        N  0.06866369  0.40770189  0.29972550     0.66100
H320        H  0.97312436  0.40056124  0.31413589     0.15000
H321        H  0.06978580  0.30436260  0.43800002     0.14700
N322        N  0.97458939  0.29796953  0.45308754     0.73800
O323        O  0.08313637  0.38575476  0.26079293    -0.39700
O324        O  0.06717265  0.45464546  0.30076684    -0.39600
O325        O  0.97535429  0.25101048  0.45268015    -0.40300
O326        O  0.96234295  0.32060459  0.49241184    -0.40400
C327        C  0.99377055  0.66815849  0.41148219    -0.12700
C328        C  0.96736413  0.65135939  0.36960116     0.04300
C329        C  0.99458722  0.63422312  0.32790969    -0.08000
C330        C  0.04687697  0.63251428  0.32963527    -0.08700
C331        C  0.07317185  0.64833043  0.37211451    -0.03300
C332        C  0.04573349  0.66662644  0.41323733     0.03500
N333        N  0.06966570  0.68132342  0.45846299     0.66100
H334        H  0.97406216  0.68079707  0.44418912     0.15000
H335        H  0.06690234  0.61910472  0.29744154     0.14700
N336        N  0.96990913  0.61966167  0.28302298     0.73800
O337        O  0.07737208  0.72686824  0.46696327    -0.39700
O338        O  0.07609612  0.64987749  0.49274834    -0.39600
O339        O  0.95781353  0.65234861  0.25153361    -0.40300
O340        O  0.96758528  0.57422865  0.27129504    -0.40400
C341        C  0.99264957  0.69014555  0.64714109    -0.12700
C342        C  0.96705730  0.65175215  0.67177983     0.04300
C343        C  0.99542271  0.61558791  0.69778951    -0.08000
C344        C  0.04740569  0.61693033  0.69625045    -0.08700
C345        C  0.07303412  0.65380415  0.66957230    -0.03300
C346        C  0.04487757  0.69169360  0.64610994     0.03500
N347        N  0.06841108  0.73229052  0.62126199     0.66100
H348        H  0.97215998  0.71894492  0.62786283     0.15000
H349        H  0.06761700  0.58768149  0.71513936     0.14700
N350        N  0.97249818  0.57584033  0.72460269     0.73800
O351        O  0.07482786  0.73037982  0.57480801    -0.39700
O352        O  0.07374782  0.77322223  0.64371466    -0.39600
O353        O  0.97058310  0.53293736  0.70550885    -0.40300
O354        O  0.96246775  0.58144041  0.77014021    -0.40400
C355        C  0.99284374  0.32259473  0.63513759    -0.12700
C356        C  0.96760441  0.34381628  0.67575705     0.04300
C357        C  0.99600415  0.36274967  0.71585361    -0.08000
C358        C  0.04818071  0.36357440  0.71291177    -0.08700
C359        C  0.07330417  0.34500039  0.67086910    -0.03300
C360        C  0.04480761  0.32324461  0.63208873     0.03500
N361        N  0.06737701  0.30469320  0.58754873     0.66100
H362        H  0.97223441  0.30777957  0.60386683     0.15000
H363        H  0.06904742  0.37899308  0.74372414     0.14700
N364        N  0.97264327  0.38031738  0.76028722     0.73800
O365        O  0.06395644  0.25905840  0.57690194    -0.39700
O366        O  0.08246258  0.33486301  0.55492898    -0.39600
O367        O  0.95738479  0.34942857  0.79212770    -0.40300
O368        O  0.97434896  0.42596524  0.77125305    -0.40400
C369        C  0.33150415  0.37473358  0.04895189    -0.12700
C370        C  0.36327206  0.34135345  0.07395944     0.04300
C371        C  0.39027533  0.30654487  0.04505679    -0.08000
C372        C  0.38870934  0.30896215  0.99291643    -0.08700
C373        C  0.36008176  0.34509389  0.96793532    -0.03300
C374        C  0.32938378  0.37673163  0.99686536     0.03500
N375        N  0.29687089  0.41239499  0.97440555     0.66100
H376        H  0.30908390  0.40096187  0.06975522     0.15000
H377        H  0.41140576  0.28303737  0.97202757     0.14700
N378        N  0.42042835  0.26901937  0.06768181     0.73800
O379        O  0.25244804  0.40050098  0.96482155    -0.39700
O380        O  0.30959604  0.45755721  0.97261636    -0.39600
O381        O  0.40280401  0.22602484  0.07425574    -0.40300
O382        O  0.46663187  0.27593635  0.07218048    -0.40400
C383        C  0.41549837  0.66206852  0.99055269    -0.12700
C384        C  0.37047554  0.65296062  0.96554231     0.04300
C385        C  0.32753929  0.64235055  0.99376859    -0.08000
C386        C  0.33076526  0.63912985  0.04588920    -0.08700
C387        C  0.37617229  0.64718648  0.07073623    -0.03300
C388        C  0.41883289  0.65890693  0.04237269     0.03500
N389        N  0.46677068  0.66403811  0.06508132     0.66100
H390        H  0.44907422  0.66921481  0.96973527     0.15000
H391        H  0.29757210  0.63110290  0.06696676     0.14700
N392        N  0.28006842  0.63684751  0.97029723     0.73800
O393        O  0.49151875  0.62560713  0.07601015    -0.39700
O394        O  0.48773741  0.70603261  0.06598428    -0.39600
O395        O  0.25869311  0.59505997  0.97026751    -0.40300
O396        O  0.25624687  0.67507279  0.95687943    -0.40400
C397        C  0.69050310  0.60832816  0.99106497    -0.12700
C398        C  0.67007176  0.64950642  0.96602807     0.04300
C399        C  0.65061382  0.68918149  0.99459461    -0.08000
C400        C  0.65020094  0.68606291  0.04672133    -0.08700
C401        C  0.66929519  0.64413872  0.07166302    -0.03300
C402        C  0.68995119  0.60503004  0.04298701     0.03500
N403        N  0.70769875  0.56012853  0.06544936     0.66100
H404        H  0.70508529  0.57699469  0.97026511     0.15000
H405        H  0.63489363  0.71689299  0.06774736     0.14700
N406        N  0.63200313  0.73334719  0.97148793     0.73800
O407        O  0.67719100  0.52645637  0.07716535    -0.39700
O408        O  0.75370702  0.55067028  0.06558863    -0.39600
O409        O  0.58604137  0.74293664  0.97279973    -0.40300
O410        O  0.66206462  0.76614504  0.95662717    -0.40400
C411        C  0.65007801  0.31269787  0.99345258    -0.12700
C412        C  0.67920393  0.34795503  0.96818866     0.04300
C413        C  0.71052901  0.37935711  0.99682453    -0.08000
C414        C  0.70867059  0.37782175  0.04896628    -0.08700
C415        C  0.67680083  0.34494306  0.07423446    -0.03300
C416        C  0.64875665  0.31067590  0.04552209     0.03500
N417        N  0.61743236  0.27434081  0.06823189     0.66100
H418        H  0.62660304  0.28710167  0.97276400     0.15000
H419        H  0.73176922  0.40372917  0.06968808     0.14700
N420        N  0.74387247  0.41380251  0.97394955     0.73800
O421        O  0.57207371  0.28415222  0.07523497    -0.39700
O422        O  0.63242939  0.22999808  0.07216554    -0.39600
O423        O  0.73383109  0.45969958  0.97420260    -0.40300
O424        O  0.78671107  0.39947099  0.96112583    -0.40400
C425        C  0.39306540  0.97280587  0.70669963    -0.12700
C426        C  0.36903533  0.94796695  0.66723335     0.04300
C427        C  0.34328147  0.97693955  0.63141056    -0.08000
C428        C  0.34332683  0.02890314  0.63507101    -0.08700
C429        C  0.36926481  0.05386849  0.67319457    -0.03300
C430        C  0.39323291  0.02493849  0.71015950     0.03500
N431        N  0.41765812  0.04757235  0.75174426     0.66100
H432        H  0.41221954  0.95171237  0.73526323     0.15000
H433        H  0.32464114  0.04976721  0.60603867     0.14700
N434        N  0.31916415  0.95485196  0.58927908     0.73800
O435        O  0.39207970  0.06454124  0.78727774    -0.39700
O436        O  0.46416761  0.04321204  0.75677946    -0.39600
O437        O  0.27260467  0.95880624  0.58440695    -0.40300
O438        O  0.34490664  0.94021134  0.55282565    -0.40400
C439        C  0.70765551  0.97491025  0.65597857    -0.12700
C440        C  0.66434818  0.94947364  0.67045673     0.04300
C441        C  0.62374254  0.97754873  0.68902843    -0.08000
C442        C  0.62686844  0.02944752  0.69183056    -0.08700
C443        C  0.66947033  0.05500927  0.67581937    -0.03300
C444        C  0.71068140  0.02702400  0.65886336     0.03500
N445        N  0.75634876  0.05074697  0.64562814     0.66100
H446        H  0.73956698  0.95428746  0.64267666     0.15000
H447        H  0.59449775  0.04987462  0.70432145     0.14700
N448        N  0.57758318  0.95457146  0.70203286     0.73800
O449        O  0.78590021  0.06483925  0.67939110    -0.39700
O450        O  0.77042679  0.05087552  0.60084876    -0.39600
O451        O  0.56472759  0.95235382  0.74712599    -0.40300
O452        O  0.54608487  0.94503235  0.66842939    -0.40400
C453        C  0.70424174  0.97309652  0.40091484    -0.12700
C454        C  0.67751170  0.94788955  0.36351871     0.04300
C455        C  0.65342283  0.97659717  0.32647993    -0.08000
C456        C  0.65304969  0.02877123  0.32993190    -0.08700
C457        C  0.67710247  0.05382195  0.36927350    -0.03300
C458        C  0.70429042  0.02507315  0.40420789     0.03500
N459        N  0.73022709  0.04745870  0.44501849     0.66100
H460        H  0.72369629  0.95248361  0.42954817     0.15000
H461        H  0.63325541  0.04965149  0.30172551     0.14700
N462        N  0.62938895  0.95365838  0.28486097     0.73800
O463        O  0.70775908  0.05495151  0.48555540    -0.39700
O464        O  0.77701045  0.05117121  0.44358599    -0.39600
O465        O  0.58261301  0.95532630  0.28104538    -0.40300
O466        O  0.65504234  0.93959595  0.24814294    -0.40400
C467        C  0.34252510  0.97281502  0.40382133    -0.12700
C468        C  0.37085271  0.94732524  0.36793112     0.04300
C469        C  0.39692608  0.97576229  0.33213425    -0.08000
C470        C  0.39641439  0.02787674  0.33465442    -0.08700
C471        C  0.37021870  0.05330149  0.37217595    -0.03300
C472        C  0.34195353  0.02487101  0.40635411     0.03500
N473        N  0.31369416  0.04774812  0.44519222     0.66100
H474        H  0.32175144  0.95239297  0.43151444     0.15000
H475        H  0.41758099  0.04839526  0.30733320     0.14700
N476        N  0.42460066  0.95267905  0.29303754     0.73800
O477        O  0.26724986  0.05269259  0.44016866    -0.39700
O478        O  0.33335085  0.05455352  0.48737411    -0.39600
O479        O  0.40500972  0.94772393  0.25058509    -0.40300
O480        O  0.47084179  0.94616254  0.29814138    -0.40400
loop_ 
_geom_bond_atom_site_label_1 
_geom_bond_atom_site_label_2 
_geom_bond_distance 
_geom_bond_site_symmetry_2 
_ccdc_geom_bond_type 
O1           Ni9   1.913       .  S
O1           C11   1.281       .  A
O2           Ni9   1.913       .  S
O2           C12   1.280       .  A
O3           Ni9   1.913       .  S
O3           C13   1.280       .  A
O4           Ni9   1.914       .  S
O4           C14   1.280       .  A
O5          Ni10   1.923       .  S
O5           C14   1.282       .  A
O6          Ni10   1.921       .  S
O6           C13   1.282       .  A
O7          Ni10   1.920       .  S
O7           C12   1.282       .  A
O8          Ni10   1.923       .  S
O8           C11   1.281       .  A
Ni9         Ni10   2.391       .  S
C11         C225   1.468       .  S
C12         C177   1.465       .  S
C13         C251   1.466       .  S
C14         C149   1.469       .  S
O15         Ni23   1.916       .  S
O15          C25   1.280       .  A
O16         Ni23   1.916       .  S
O16          C26   1.280       .  A
O17         Ni23   1.913       .  S
O17          C27   1.280       .  A
O18         Ni23   1.911       .  S
O18          C28   1.280       .  A
O19         Ni24   1.922       .  S
O19          C28   1.281       .  A
O20         Ni24   1.923       .  S
O20          C27   1.282       .  A
O21         Ni24   1.922       .  S
O21          C26   1.282       .  A
O22         Ni24   1.922       .  S
O22          C25   1.282       .  A
Ni23        Ni24   2.391       .  S
C25         C187   1.468       .  S
C26          C97   1.469       .  S
C27         C175   1.468       .  S
C28         C111   1.465       .  S
O29         Ni37   1.930       .  S
O29          C39   1.283       .  A
O30         Ni37   1.933       .  S
O30          C40   1.284       .  A
O31         Ni37   1.925       .  S
O31          C41   1.282       .  A
O32         Ni37   1.923       .  S
O32          C42   1.282       .  A
O33         Ni38   1.915       .  S
O33          C42   1.281       .  A
O34         Ni38   1.916       .  S
O34          C41   1.281       .  A
O35         Ni38   1.914       .  S
O35          C40   1.280       .  A
O36         Ni38   1.913       .  S
O36          C39   1.280       .  A
Ni37        Ni38   2.390       .  S
C39         C279   1.472       .  S
C40          C99   1.474       .  S
C41         C253   1.471       .  S
C42          C73   1.469       .  S
C43         C468   1.495       .  S
C43          N44   1.361       .  A
C43          N48   1.363       .  A
N44          C45   1.358       .  A
C45         C210   1.468       .  S
C45          N46   1.357       .  A
N46          C47   1.356       .  A
C47         C274   1.470       .  S
C47          N48   1.358       .  A
C49         C471   1.495       .  S
C49          N50   1.363       .  A
C49          N54   1.359       .  A
N50          C51   1.360       .  A
C51          C66   1.468       .  S
C51          N52   1.357       .  A
N52          C53   1.355       .  A
C53         C146   1.466       .  S
C53          N54   1.356       .  A
O55         Ni63   1.927       .  S
O55          C65   1.283       .  A
O56         Ni63   1.926       .  S
O56          C66   1.283       .  A
O57         Ni63   1.925       .  S
O57          C67   1.282       .  A
O58         Ni63   1.924       .  S
O58          C68   1.282       .  A
O59         Ni64   1.913       .  S
O59          C68   1.281       .  A
O60         Ni64   1.914       .  S
O60          C67   1.281       .  A
O61         Ni64   1.910       .  S
O61          C66   1.280       .  A
O62         Ni64   1.911       .  S
O62          C65   1.280       .  A
Ni63        Ni64   2.391       .  S
C65         C157   1.469       .  S
C67         C219   1.470       .  S
C68          C79   1.468       .  S
C69         C454   1.496       .  S
C69          N70   1.364       .  A
C69          N74   1.362       .  A
N70          C71   1.362       .  A
C71         C208   1.471       .  S
C71          N72   1.357       .  A
N72          C73   1.355       .  A
C73          N74   1.356       .  A
C75         C457   1.496       .  S
C75          N76   1.360       .  A
C75          N80   1.363       .  A
N76          C77   1.356       .  A
C77          C94   1.467       .  S
C77          N78   1.355       .  A
N78          C79   1.357       .  A
C79          N80   1.360       .  A
O81         Ni89   1.912       .  S
O81          C91   1.280       .  A
O82         Ni89   1.913       .  S
O82          C92   1.280       .  A
O83         Ni89   1.915       .  S
O83          C93   1.281       .  A
O84         Ni89   1.916       .  S
O84          C94   1.281       .  A
O85         Ni90   1.918       .  S
O85          C94   1.281       .  A
O86         Ni90   1.917       .  S
O86          C93   1.280       .  A
O87         Ni90   1.925       .  S
O87          C92   1.282       .  A
O88         Ni90   1.924       .  S
O88          C91   1.282       .  A
Ni89        Ni90   2.391       .  S
C91         C289   1.467       .  S
C92         C103   1.469       .  S
C93         C227   1.465       .  S
C95         C440   1.491       .  S
C95          N96   1.359       .  A
C95         N100   1.365       .  A
N96          C97   1.355       .  A
C97          N98   1.356       .  A
N98          C99   1.359       .  A
C99         N100   1.362       .  A
C101        C443   1.489       .  S
C101        N102   1.362       .  A
C101        N106   1.362       .  A
N102        C103   1.359       .  A
C103        N104   1.358       .  A
N104        C105   1.357       .  A
C105        C130   1.471       .  S
C105        N106   1.358       .  A
C107        C426   1.494       .  S
C107        N108   1.361       .  A
C107        N112   1.363       .  A
N108        C109   1.357       .  A
C109        C272   1.465       .  S
C109        N110   1.354       .  A
N110        C111   1.355       .  A
C111        N112   1.359       .  A
C113        C429   1.495       .  S
C113        N114   1.362       .  A
C113        N118   1.364       .  A
N114        C115   1.356       .  A
C115        C144   1.469       .  S
C115        N116   1.355       .  A
N116        C117   1.357       .  A
C117        C132   1.471       .  S
C117        N118   1.361       .  A
O119       Ni127   1.927       .  S
O119        C129   1.283       .  A
O120       Ni127   1.925       .  S
O120        C130   1.282       .  A
O121       Ni127   1.927       .  S
O121        C131   1.283       .  A
O122       Ni127   1.927       .  S
O122        C132   1.282       .  A
O123       Ni128   1.914       .  S
O123        C132   1.281       .  A
O124       Ni128   1.915       .  S
O124        C131   1.280       .  A
O125       Ni128   1.916       .  S
O125        C130   1.281       .  A
O126       Ni128   1.918       .  S
O126        C129   1.281       .  A
Ni127      Ni128   2.390       .  S
C129        C213   1.474       .  S
C131        C151   1.472       .  S
O133       Ni141   1.926       .  S
O133        C143   1.283       .  A
O134       Ni141   1.924       .  S
O134        C144   1.282       .  A
O135       Ni141   1.917       .  S
O135        C145   1.280       .  A
O136       Ni141   1.918       .  S
O136        C146   1.281       .  A
O137       Ni142   1.916       .  S
O137        C146   1.281       .  A
O138       Ni142   1.915       .  S
O138        C145   1.281       .  A
O139       Ni142   1.914       .  S
O139        C144   1.280       .  A
O140       Ni142   1.916       .  S
O140        C143   1.280       .  A
Ni141      Ni142   2.391       .  S
C143        C297   1.471       .  S
C145        C231   1.465       .  S
C147        C412   1.496       .  S
C147        N148   1.361       .  A
C147        N152   1.364       .  A
N148        C149   1.358       .  A
C149        N150   1.357       .  A
N150        C151   1.357       .  A
C151        N152   1.359       .  A
C153        C415   1.497       .  S
C153        N154   1.364       .  A
C153        N158   1.362       .  A
N154        C155   1.359       .  A
C155        C171   1.470       .  S
C155        N156   1.356       .  A
N156        C157   1.356       .  A
C157        N158   1.358       .  A
O159       Ni167   1.926       .  S
O159        C169   1.283       .  A
O160       Ni167   1.927       .  S
O160        C170   1.283       .  A
O161       Ni167   1.922       .  S
O161        C171   1.281       .  A
O162       Ni167   1.921       .  S
O162        C172   1.281       .  A
O163       Ni168   1.917       .  S
O163        C172   1.281       .  A
O164       Ni168   1.918       .  S
O164        C171   1.282       .  A
O165       Ni168   1.912       .  S
O165        C170   1.280       .  A
O166       Ni168   1.911       .  S
O166        C169   1.279       .  A
Ni167      Ni168   2.391       .  S
C169        C181   1.468       .  S
C170        C291   1.469       .  S
C172        C277   1.469       .  S
C173        C398   1.489       .  S
C173        N174   1.362       .  A
C173        N178   1.360       .  A
N174        C175   1.360       .  A
C175        N176   1.357       .  A
N176        C177   1.355       .  A
C177        N178   1.355       .  A
C179        C401   1.489       .  S
C179        N180   1.361       .  A
C179        N184   1.363       .  A
N180        C181   1.356       .  A
C181        N182   1.356       .  A
N182        C183   1.357       .  A
C183        C209   1.468       .  S
C183        N184   1.359       .  A
C185        C384   1.484       .  S
C185        N186   1.361       .  A
C185        N190   1.362       .  A
N186        C187   1.356       .  A
C187        N188   1.356       .  A
N188        C189   1.358       .  A
C189        C248   1.469       .  S
C189        N190   1.360       .  A
C191        C387   1.485       .  S
C191        N192   1.360       .  A
C191        N196   1.363       .  A
N192        C193   1.356       .  A
C193        C207   1.470       .  S
C193        N194   1.356       .  A
N194        C195   1.359       .  A
C195        C310   1.472       .  S
C195        N196   1.361       .  A
O197       Ni205   1.923       .  S
O197        C207   1.282       .  A
O198       Ni205   1.925       .  S
O198        C208   1.281       .  A
O199       Ni205   1.926       .  S
O199        C209   1.283       .  A
O200       Ni205   1.926       .  S
O200        C210   1.283       .  A
O201       Ni206   1.910       .  S
O201        C210   1.279       .  A
O202       Ni206   1.911       .  S
O202        C209   1.280       .  A
O203       Ni206   1.916       .  S
O203        C208   1.282       .  A
O204       Ni206   1.917       .  S
O204        C207   1.281       .  A
Ni205      Ni206   2.391       .  S
C211        C373   1.497       .  S
C211        N212   1.364       .  A
C211        N216   1.362       .  A
N212        C213   1.359       .  A
C213        N214   1.357       .  A
N214        C215   1.358       .  A
C215        C246   1.472       .  S
C215        N216   1.359       .  A
C217        C370   1.497       .  S
C217        N218   1.363       .  A
C217        N222   1.362       .  A
N218        C219   1.360       .  A
C219        N220   1.357       .  A
N220        C221   1.356       .  A
C221        C312   1.469       .  S
C221        N222   1.357       .  A
C223        C356   1.492       .  S
C223        N224   1.364       .  A
C223        N228   1.362       .  A
N224        C225   1.362       .  A
C225        N226   1.355       .  A
N226        C227   1.353       .  A
C227        N228   1.356       .  A
C229        C359   1.492       .  S
C229        N230   1.360       .  A
C229        N234   1.364       .  A
N230        C231   1.356       .  A
C231        N232   1.354       .  A
N232        C233   1.356       .  A
C233        C247   1.467       .  S
C233        N234   1.361       .  A
O235       Ni243   1.914       .  S
O235        C245   1.280       .  A
O236       Ni243   1.914       .  S
O236        C246   1.280       .  A
O237       Ni243   1.912       .  S
O237        C247   1.281       .  A
O238       Ni243   1.912       .  S
O238        C248   1.280       .  A
O239       Ni244   1.924       .  S
O239        C248   1.282       .  A
O240       Ni244   1.924       .  S
O240        C247   1.281       .  A
O241       Ni244   1.928       .  S
O241        C246   1.283       .  A
O242       Ni244   1.927       .  S
O242        C245   1.283       .  A
Ni243      Ni244   2.390       .  S
C245        C257   1.471       .  S
C249        C342   1.495       .  S
C249        N250   1.359       .  A
C249        N254   1.364       .  A
N250        C251   1.354       .  A
C251        N252   1.356       .  A
N252        C253   1.358       .  A
C253        N254   1.362       .  A
C255        C345   1.494       .  S
C255        N256   1.362       .  A
C255        N260   1.362       .  A
N256        C257   1.357       .  A
C257        N258   1.357       .  A
N258        C259   1.358       .  A
C259        C273   1.471       .  S
C259        N260   1.360       .  A
O261       Ni269   1.911       .  S
O261        C271   1.280       .  A
O262       Ni269   1.912       .  S
O262        C272   1.280       .  A
O263       Ni269   1.916       .  S
O263        C273   1.281       .  A
O264       Ni269   1.916       .  S
O264        C274   1.281       .  A
O265       Ni270   1.924       .  S
O265        C274   1.282       .  A
O266       Ni270   1.925       .  S
O266        C273   1.282       .  A
O267       Ni270   1.920       .  S
O267        C272   1.281       .  A
O268       Ni270   1.919       .  S
O268        C271   1.281       .  A
Ni269      Ni270   2.391       .  S
C271        C285   1.464       .  S
C275        C328   1.490       .  S
C275        N276   1.361       .  A
C275        N280   1.364       .  A
N276        C277   1.359       .  A
C277        N278   1.357       .  A
N278        C279   1.357       .  A
C279        N280   1.359       .  A
C281        C331   1.492       .  S
C281        N282   1.365       .  A
C281        N286   1.359       .  A
N282        C283   1.364       .  A
C283        C311   1.470       .  S
C283        N284   1.356       .  A
N284        C285   1.354       .  A
C285        N286   1.354       .  A
C287        C314   1.494       .  S
C287        N288   1.360       .  A
C287        N292   1.363       .  A
N288        C289   1.356       .  A
C289        N290   1.356       .  A
N290        C291   1.357       .  A
C291        N292   1.359       .  A
C293        C317   1.495       .  S
C293        N294   1.361       .  A
C293        N298   1.363       .  A
N294        C295   1.357       .  A
C295        C309   1.468       .  S
C295        N296   1.358       .  A
N296        C297   1.357       .  A
C297        N298   1.358       .  A
O299       Ni307   1.909       .  S
O299        C309   1.279       .  A
O300       Ni307   1.910       .  S
O300        C310   1.279       .  A
O301       Ni307   1.916       .  S
O301        C311   1.282       .  A
O302       Ni307   1.917       .  S
O302        C312   1.281       .  A
O303       Ni308   1.922       .  S
O303        C312   1.281       .  A
O304       Ni308   1.923       .  S
O304        C311   1.281       .  A
O305       Ni308   1.932       .  S
O305        C310   1.284       .  A
O306       Ni308   1.928       .  S
O306        C309   1.283       .  A
Ni307      Ni308   2.390       .  S
C313        C314   1.407       .  A
C313        C318   1.401   1_655  A
C313        H320   1.080       .  S
C314        C315   1.418       .  A
C315        C316   1.401   1_655  A
C315        N322   1.430       .  S
C316        C317   1.407       .  A
C316        H321   1.080       .  S
C317        C318   1.416       .  A
C318        N319   1.430       .  S
N319        O323   1.262       .  A
N319        O324   1.262       .  A
N322        O326   1.262       .  A
N322        O325   1.262       .  A
C327        C328   1.403       .  A
C327        C332   1.398   1_655  A
C327        H334   1.081       .  S
C328        C329   1.415       .  A
C329        C330   1.406   1_655  A
C329        N336   1.429       .  S
C330        C331   1.406       .  A
C330        H335   1.081       .  S
C331        C332   1.417       .  A
C332        N333   1.428       .  S
N333        O337   1.262       .  A
N333        O338   1.262       .  A
N336        O340   1.262       .  A
N336        O339   1.262       .  A
C341        C342   1.407       .  A
C341        C346   1.404   1_655  A
C341        H348   1.081       .  S
C342        C343   1.418       .  A
C343        C344   1.398   1_655  A
C343        N350   1.430       .  S
C344        C345   1.405       .  A
C344        H349   1.081       .  S
C345        C346   1.415       .  A
C346        N347   1.428       .  S
N347        O351   1.261       .  A
N347        O352   1.262       .  A
N350        O354   1.262       .  A
N350        O353   1.262       .  A
C355        C356   1.406       .  A
C355        C360   1.399   1_655  A
C355        H362   1.081       .  S
C356        C357   1.413       .  A
C357        C358   1.405   1_655  A
C357        N364   1.429       .  S
C358        C359   1.408       .  A
C358        H363   1.081       .  S
C359        C360   1.417       .  A
C360        N361   1.431       .  S
N361        O365   1.262       .  A
N361        O366   1.262       .  A
N364        O368   1.262       .  A
N364        O367   1.262       .  A
C369        C370   1.408       .  A
C369        C374   1.401   1_554  A
C369        H376   1.082       .  S
C370        C371   1.415       .  A
C371        C372   1.403   1_554  A
C371        N378   1.428       .  S
C372        C373   1.408       .  A
C372        H377   1.082       .  S
C373        C374   1.417       .  A
C374        N375   1.429       .  S
N375        O379   1.262       .  A
N375        O380   1.262       .  A
N378        O382   1.261       .  A
N378        O381   1.262       .  A
C383        C384   1.404       .  A
C383        C388   1.397   1_556  A
C383        H390   1.080       .  S
C384        C385   1.412       .  A
C385        C386   1.405   1_556  A
C385        N392   1.429       .  S
C386        C387   1.406       .  A
C386        H391   1.080       .  S
C387        C388   1.414       .  A
C388        N389   1.431       .  S
N389        O393   1.262       .  A
N389        O394   1.262       .  A
N392        O396   1.262       .  A
N392        O395   1.262       .  A
C397        C398   1.406       .  A
C397        C402   1.398   1_556  A
C397        H404   1.083       .  S
C398        C399   1.413       .  A
C399        C400   1.403   1_556  A
C399        N406   1.429       .  S
C400        C401   1.407       .  A
C400        H405   1.083       .  S
C401        C402   1.416       .  A
C402        N403   1.430       .  S
N403        O407   1.262       .  A
N403        O408   1.262       .  A
N406        O410   1.262       .  A
N406        O409   1.262       .  A
C411        C412   1.406       .  A
C411        C416   1.400   1_556  A
C411        H418   1.085       .  S
C412        C413   1.417       .  A
C413        C414   1.402   1_556  A
C413        N420   1.429       .  S
C414        C415   1.407       .  A
C414        H419   1.085       .  S
C415        C416   1.417       .  A
C416        N417   1.428       .  S
N417        O421   1.261       .  A
N417        O422   1.262       .  A
N420        O424   1.262       .  A
N420        O423   1.262       .  A
C425        C426   1.408       .  A
C425        C430   1.404   1_565  A
C425        H432   1.083       .  S
C426        C427   1.417       .  A
C427        C428   1.399   1_565  A
C427        N434   1.431       .  S
C428        C429   1.407       .  A
C428        H433   1.083       .  S
C429        C430   1.415       .  A
C430        N431   1.430       .  S
N431        O435   1.262       .  A
N431        O436   1.262       .  A
N434        O438   1.262       .  A
N434        O437   1.262       .  A
C439        C440   1.406       .  A
C439        C444   1.405   1_565  A
C439        H446   1.082       .  S
C440        C441   1.417       .  A
C441        C442   1.399   1_565  A
C441        N448   1.430       .  S
C442        C443   1.404       .  A
C442        H447   1.082       .  S
C443        C444   1.414       .  A
C444        N445   1.429       .  S
N445        O449   1.262       .  A
N445        O450   1.262       .  A
N448        O452   1.262       .  A
N448        O451   1.262       .  A
C453        C454   1.407       .  A
C453        C458   1.399   1_565  A
C453        H460   1.082       .  S
C454        C455   1.415       .  A
C455        C456   1.405   1_565  A
C455        N462   1.429       .  S
C456        C457   1.408       .  A
C456        H461   1.082       .  S
C457        C458   1.417       .  A
C458        N459   1.430       .  S
N459        O463   1.262       .  A
N459        O464   1.262       .  A
N462        O466   1.262       .  A
N462        O465   1.262       .  A
C467        C468   1.407       .  A
C467        C472   1.400   1_565  A
C467        H474   1.082       .  S
C468        C469   1.416       .  A
C469        C470   1.402   1_565  A
C469        N476   1.429       .  S
C470        C471   1.407       .  A
C470        H475   1.082       .  S
C471        C472   1.418       .  A
C472        N473   1.430       .  S
N473        O477   1.262       .  A
N473        O478   1.262       .  A
N476        O480   1.262       .  A
N476        O479   1.262       .  A
