geometry optimzed in LAMMPS
_audit_creation_date              2020-12-01 
_audit_creation_method            'lammps2cif' 
_symmetry_space_group_name_H-M    'P1' 
_symmetry_Int_Tables_number       1 
_symmetry_cell_setting            triclinic 
loop_ 
_symmetry_equiv_pos_as_xyz 
  x,y,z 
_cell_length_a                    50.06841927 
_cell_length_b                    56.60717623426695 
_cell_length_c                    53.44433933657882 
_cell_angle_alpha                 89.93839069380493 
_cell_angle_beta                  90.01926224441854 
_cell_angle_gamma                 89.85488336778558 
loop_ 
_atom_site_label 
_atom_site_type_symbol 
_atom_site_fract_x 
_atom_site_fract_y 
_atom_site_fract_z 
_atom_site_charge 
C1          C  0.07687218  0.68305971  0.93280712     0.80300
N2          N  0.06562040  0.68913782  0.91081107    -0.78000
C3          C  0.04220291  0.67970781  0.90325636     0.82700
N4          N  0.02920141  0.66400670  0.91851113    -0.78000
C5          C  0.04033355  0.65790703  0.94113499     0.82800
N6          N  0.06413033  0.66761352  0.94805196    -0.79700
C7          C  0.88413763  0.68982983  0.93700136     0.80300
N8          N  0.89553270  0.67284053  0.95150735    -0.78000
C9          C  0.91808037  0.66128712  0.94371946     0.82700
N10         N  0.92900593  0.66684488  0.92098674    -0.78000
C11         C  0.91732267  0.68394960  0.90657834     0.82800
N12         N  0.89530795  0.69533669  0.91486411    -0.79700
C13         C  0.91467449  0.68418505  0.14487852     0.80300
N14         N  0.92796120  0.66770000  0.13092255    -0.78000
C15         C  0.91741432  0.66059862  0.10854435     0.82700
N16         N  0.89370474  0.67010968  0.10056589    -0.78000
C17         C  0.88057967  0.68638680  0.11464791     0.82800
N18         N  0.89144636  0.69346244  0.13643456    -0.79700
C19         C  0.04588858  0.68024565  0.14831862     0.80300
N20         N  0.03253158  0.66483581  0.13300407    -0.78000
C21         C  0.04313490  0.65903650  0.11007372     0.82700
N22         N  0.06672759  0.66908617  0.10281165    -0.78000
C23         C  0.07972915  0.68446327  0.11807695     0.82800
N24         N  0.06901640  0.68996897  0.14044634    -0.79700
C25         C  0.91363074  0.52510849  0.14795185     0.80300
N26         N  0.92684490  0.54097643  0.13322181    -0.78000
C27         C  0.91673147  0.54657507  0.11016592     0.82700
N28         N  0.89367904  0.53608734  0.10216462    -0.78000
C29         C  0.88076605  0.52019835  0.11682211     0.82800
N30         N  0.89108190  0.51473760  0.13942101    -0.79700
C31         C  0.87956176  0.51717293  0.93851944     0.80300
N32         N  0.89244976  0.53325057  0.95298307    -0.78000
C33         C  0.91536254  0.54384947  0.94473797     0.82700
N34         N  0.92549685  0.53784175  0.92181311    -0.78000
C35         C  0.91242620  0.52160438  0.90741812     0.82800
N36         N  0.88989349  0.51131460  0.91607159    -0.79700
C37         C  0.07527741  0.51880355  0.93063923     0.80300
N38         N  0.06281955  0.53374269  0.94680621    -0.78000
C39         C  0.03865408  0.54357336  0.94082328     0.82700
N40         N  0.02692963  0.53807299  0.91830842    -0.78000
C41         C  0.03964877  0.52296224  0.90219965     0.82800
N42         N  0.06341800  0.51349877  0.90874802    -0.79700
C43         C  0.04452436  0.51986108  0.14565987     0.80300
N44         N  0.03152191  0.53641621  0.13141276    -0.78000
C45         C  0.04191343  0.54288046  0.10867608     0.82700
N46         N  0.06527449  0.53278375  0.10072748    -0.78000
C47         C  0.07815017  0.51643668  0.11498661     0.82800
N48         N  0.06739887  0.50994469  0.13709273    -0.79700
O49         O  0.03253246  0.64709653  0.98305205    -0.75200
O50         O  0.00763816  0.62880907  0.95283190    -0.54100
C51         C  0.02582267  0.64348443  0.96000807     0.78500
O52         O  0.03203423  0.55406179  0.06736960    -0.59800
O53         O  0.00958030  0.57343503  0.09850903    -0.52800
C54         C  0.02675086  0.55795560  0.09061913     0.70500
O55         O  0.03115665  0.55428624  0.98310374    -0.74400
O56         O  0.00693886  0.57349084  0.95299254    -0.54900
C57         C  0.02461869  0.55817871  0.96005089     0.76500
O58         O  0.03375722  0.64822332  0.06812706    -0.59500
O59         O  0.01038272  0.62947073  0.09905217    -0.52600
C60         C  0.02806982  0.64447908  0.09141310     0.73100
Zr61       Zr  0.01979758  0.63588207  0.02580531     2.54700
O62         O  0.06844322  0.63489114  0.02536896    -0.80100
O63         O  0.01678631  0.67880656  0.02498396    -0.93500
Zr64       Zr  0.01839899  0.56684922  0.02557587     2.64700
O65         O  0.06696841  0.56908153  0.02602056    -0.98500
O66         O  0.01707076  0.52387455  0.02530106    -0.80500
O67         O  0.01898116  0.60133969  0.00044600    -0.83900
O68         O  0.01981337  0.60130911  0.05085933    -2.18600
O69         O  0.92713137  0.64958875  0.06757422    -0.67300
O70         O  0.95074471  0.63085818  0.09842749    -0.51800
C71         C  0.93289452  0.64584111  0.09066348     0.71500
O72         O  0.92496916  0.55557910  0.98575780    -0.60200
O73         O  0.94818368  0.57382281  0.95445309    -0.52100
C74         C  0.93051542  0.55896384  0.96252713     0.73300
O75         O  0.92603168  0.55710073  0.06887603    -0.71600
O76         O  0.95026214  0.57541916  0.09943155    -0.50200
C77         C  0.93207079  0.56086248  0.09191759     0.74700
O78         O  0.92663881  0.64954205  0.98493890    -0.66900
O79         O  0.94924891  0.63007164  0.95403434    -0.54100
C80         C  0.93216776  0.64564540  0.96180150     0.73100
Zr81       Zr  0.94139866  0.63729309  0.02631960     2.77500
O82         O  0.89277162  0.63855135  0.02574970    -0.97600
O83         O  0.94794885  0.67990944  0.02638483    -0.78500
Zr84       Zr  0.93945836  0.56858771  0.02695179     2.70100
O85         O  0.89124780  0.57429841  0.02654690    -0.79700
O86         O  0.93645168  0.52569513  0.02900455    -0.98800
Zr87       Zr  0.97855253  0.60160771  0.97607400     2.21500
Zr88       Zr  0.98036869  0.60221986  0.07655099     2.11100
O89         O  0.94031162  0.60305928  0.05185303    -2.47500
O90         O  0.93917305  0.60276116  0.00140006    -0.79500
O91         O  0.98083400  0.63696755  0.05098221    -0.71700
O92         O  0.97842121  0.56689218  0.00179436    -2.32700
O93         O  0.98024937  0.63658653  0.00130519    -2.28900
O94         O  0.97936863  0.56741355  0.05094394    -0.73500
H95         H  0.03567825  0.60100479  0.06116969     0.78500
H96         H  0.97793641  0.55280411  0.99162290     0.79600
H97         H  0.92465969  0.60344389  0.06242929     0.81800
H98         H  0.98033804  0.65054594  0.99088148     0.79500
H99         H  0.99781185  0.51999603  0.02569226     0.42500
H100        H  0.91831401  0.52200197  0.02276210     0.41500
H101        H  0.88393889  0.55957721  0.03382078     0.41100
H102        H  0.88716805  0.62783186  0.03941441     0.39100
H103        H  0.93267580  0.68635451  0.01676682     0.42200
H104        H  0.03518086  0.68424682  0.02852432     0.37000
H105        H  0.07352219  0.62633861  0.04083204     0.43100
H106        H  0.07301375  0.55378536  0.01902904     0.39500
H107        H  0.88809799  0.65457010  0.03178214     0.44400
H108        H  0.00651377  0.68296537  0.04019005     0.43200
H109        H  0.07139991  0.58084150  0.01294919     0.43300
H110        H  0.94859254  0.51995218  0.01571113     0.43700
C111        C  0.56793151  0.01950360  0.11824079     0.80300
N112        N  0.55105107  0.03315376  0.10465550    -0.78000
C113        C  0.54113694  0.02536364  0.08237267     0.82700
N114        N  0.54831962  0.00347270  0.07374860    -0.78000
C115        C  0.56532532  0.98980395  0.08767685     0.82800
N116        N  0.57515113  0.99812307  0.10949995    -0.79700
C117        C  0.56171364  0.01830418  0.92159283     0.80300
N118        N  0.54556196  0.03228011  0.93568617    -0.78000
C119        C  0.53665127  0.02480136  0.95855389     0.82700
N120        N  0.54427767  0.00304471  0.96728082    -0.78000
C121        C  0.56061304  0.98912151  0.95301121     0.82800
N122        N  0.56931262  0.99706685  0.93059918    -0.79700
C123        C  0.56238577  0.21766081  0.95764582     0.80300
N124        N  0.54584270  0.20326991  0.97100905    -0.78000
C125        C  0.53844691  0.18195350  0.96122095     0.82700
N126        N  0.54759822  0.17544531  0.93807519    -0.78000
C127        C  0.56386089  0.19005419  0.92483381     0.82800
N128        N  0.57130019  0.21078645  0.93496204    -0.79700
C129        C  0.55890793  0.22007973  0.09085819     0.80300
N130        N  0.56887859  0.21169097  0.11266432    -0.78000
C131        C  0.56370221  0.18957045  0.12054436     0.82700
N132        N  0.54861391  0.17514743  0.10603193    -0.78000
C133        C  0.53842261  0.18291381  0.08374197     0.82800
N134        N  0.54365907  0.20561774  0.07603945    -0.79700
C135        C  0.39694584  0.21923630  0.95566749     0.80300
N136        N  0.41221991  0.20418377  0.96957722    -0.78000
C137        C  0.41835015  0.18234074  0.96030920     0.82700
N138        N  0.40899449  0.17586821  0.93731972    -0.78000
C139        C  0.39373619  0.19099860  0.92365452     0.82800
N140        N  0.38763746  0.21237689  0.93311695    -0.79700
C141        C  0.38762755  0.01156118  0.93016601     0.80300
N142        N  0.40358513  0.02742826  0.94207784    -0.78000
C143        C  0.41400110  0.02241472  0.96513439     0.82700
N144        N  0.40829823  0.00110738  0.97616384    -0.78000
C145        C  0.39218995  0.98531594  0.96405643     0.82800
N146        N  0.38191455  0.99087435  0.94142104    -0.79700
C147        C  0.39058153  0.01434727  0.11848021     0.80300
N148        N  0.40648999  0.02938078  0.10541175    -0.78000
C149        C  0.41594048  0.02333382  0.08229274     0.82700
N150        N  0.40924552  0.00187163  0.07228559    -0.78000
C151        C  0.39310974  0.98689652  0.08546913     0.82800
N152        N  0.38377830  0.99344289  0.10818666    -0.79700
C153        C  0.39404785  0.21770560  0.08995730     0.80300
N154        N  0.38428478  0.21042722  0.11224085    -0.78000
C155        C  0.39071202  0.18907380  0.12174918     0.82700
N156        N  0.40664692  0.17430616  0.10824490    -0.78000
C157        C  0.41658569  0.18122733  0.08550950     0.82800
N158        N  0.41013291  0.20306402  0.07635400    -0.79700
O159        O  0.52980645  0.06420579  0.07217647    -0.75200
O160        O  0.50904060  0.03489903  0.05020726    -0.54100
C161        C  0.52550231  0.04232189  0.06708513     0.78500
O162        O  0.42704682  0.14192008  0.07533861    -0.59800
O163        O  0.44668854  0.17090662  0.05193028    -0.52800
C164        C  0.43124722  0.16374574  0.06986047     0.70500
O165        O  0.42621273  0.06303922  0.07321580    -0.74400
O166        O  0.44760181  0.03446495  0.05055115    -0.54900
C167        C  0.43103124  0.04126651  0.06765944     0.76500
O168        O  0.52895904  0.14352326  0.07269531    -0.59500
O169        O  0.50742121  0.17246409  0.05070041    -0.52600
C170        C  0.52396712  0.16542767  0.06777658     0.73100
Zr171      Zr  0.51703723  0.10367686  0.05864750     2.54700
O172        O  0.51688918  0.10281258  0.10420672    -0.80100
O173        O  0.56557798  0.10508427  0.05659449    -0.93500
Zr174      Zr  0.43843864  0.10282321  0.05935329     2.64700
O175        O  0.43541863  0.10022043  0.10478301    -0.98500
O176        O  0.39031059  0.10491549  0.05324160    -0.80500
O177        O  0.47810023  0.07983225  0.05945458    -0.83900
O178        O  0.47751665  0.12651175  0.05974709    -2.18600
O179        O  0.52799009  0.14266750  0.97074085    -0.67300
O180        O  0.50778897  0.17141217  0.99411893    -0.51800
C181        C  0.52360295  0.16441220  0.97643367     0.71500
O182        O  0.42504944  0.06266046  0.97236570    -0.60200
O183        O  0.44645888  0.03440688  0.99557847    -0.52100
C184        C  0.42964911  0.04091678  0.97854994     0.73300
O185        O  0.42730389  0.14271257  0.97055036    -0.71600
O186        O  0.44773418  0.17150397  0.99368865    -0.50200
C187        C  0.43216562  0.16450876  0.97591400     0.74700
O188        O  0.52695627  0.06391120  0.96970320    -0.66900
O189        O  0.50685345  0.03480098  0.99250525    -0.54100
C190        C  0.52235481  0.04205047  0.97472666     0.73100
Zr191      Zr  0.51583206  0.10326127  0.98497833     2.77500
O192        O  0.51289249  0.10327811  0.93943857    -0.97600
O193        O  0.56445655  0.10317465  0.98532529    -0.78500
Zr194      Zr  0.43755555  0.10284801  0.98585832     2.70100
O195        O  0.43561176  0.10128010  0.94036620    -0.79700
O196        O  0.38925709  0.10473015  0.99115820    -0.98800
Zr197      Zr  0.47787310  0.05605402  0.02236167     2.21500
Zr198      Zr  0.47724022  0.15032220  0.02267045     2.11100
O199        O  0.47663512  0.12649725  0.98547739    -2.47500
O200        O  0.47694545  0.07956634  0.98514117    -0.79500
O201        O  0.51711945  0.12690210  0.02175122    -0.71700
O202        O  0.43780048  0.07937532  0.02265649    -2.32700
O203        O  0.51743552  0.07999055  0.02188975    -2.28900
O204        O  0.43754807  0.12655780  0.02265344    -0.73500
H205        H  0.47767985  0.13623897  0.07457154     0.78500
H206        H  0.42215602  0.06942886  0.02283647     0.79600
H207        H  0.47669672  0.13631317  0.97070412     0.81800
H208        H  0.53324860  0.07018301  0.02159952     0.79500
H209        H  0.38277593  0.10381274  0.07032618     0.42500
H210        H  0.38328838  0.11760839  0.97990848     0.41500
H211        H  0.45063299  0.11128752  0.93469947     0.41100
H212        H  0.49969381  0.09082953  0.93548046     0.39100
H213        H  0.56937105  0.11731253  0.99518592     0.42200
H214        H  0.57065918  0.09168173  0.04569150     0.37000
H215        H  0.50069878  0.11176143  0.10907179     0.43100
H216        H  0.44966567  0.11076387  0.11105531     0.39500
H217        H  0.50368091  0.11820937  0.93503709     0.44400
H218        H  0.57154644  0.10029272  0.07352604     0.43200
H219        H  0.41853955  0.10835804  0.10919960     0.43300
H220        H  0.38242966  0.09015476  0.98321676     0.43700
C221        C  0.07518839  0.01427346  0.61225146     0.80300
N222        N  0.06139886  0.02881027  0.59668817    -0.78000
C223        C  0.03812764  0.02150247  0.58582688     0.82700
N224        N  0.02865033  0.99920765  0.59097455    -0.78000
C225        C  0.04277500  0.98469796  0.60681261     0.82800
N226        N  0.06559364  0.99261565  0.61726341    -0.79700
C227        C  0.87342279  0.01672853  0.61122844     0.80300
N228        N  0.88767045  0.03039983  0.59520831    -0.78000
C229        C  0.91139630  0.02267870  0.58553498     0.82700
N230        N  0.92077501  0.00068449  0.59208574    -0.78000
C231        C  0.90624134  0.98699699  0.60831769     0.82800
N232        N  0.88303317  0.99534636  0.61775099    -0.79700
C233        C  0.90699393  0.21836663  0.60324408     0.80300
N234        N  0.88233280  0.21218935  0.61119142    -0.78000
C235        C  0.87172570  0.19103122  0.60516120     0.82700
N236        N  0.88632698  0.17545505  0.59154103    -0.78000
C237        C  0.91126274  0.18127812  0.58339320     0.82800
N238        N  0.92175680  0.20281207  0.58945933    -0.79700
C239        C  0.04206583  0.21765352  0.60779216     0.80300
N240        N  0.06483533  0.20986550  0.61869302    -0.78000
C241        C  0.07474952  0.18818651  0.61400119     0.82700
N242        N  0.06122982  0.17353141  0.59838639    -0.78000
C243        C  0.03800122  0.18072889  0.58720432     0.82800
N244        N  0.02833194  0.20302724  0.59194851    -0.79700
C245        C  0.91245432  0.21851722  0.44391593     0.80300
N246        N  0.88975426  0.21105013  0.43275537    -0.78000
C247        C  0.87978507  0.18937512  0.43740934     0.82700
N248        N  0.89305784  0.17459881  0.45309685    -0.78000
C249        C  0.91616824  0.18152565  0.46442728     0.82800
N250        N  0.92601759  0.20369562  0.45976567    -0.79700
C251        C  0.87720357  0.01587667  0.43723387     0.80300
N252        N  0.89007722  0.03025907  0.45361189    -0.78000
C253        C  0.91329261  0.02313279  0.46485063     0.82700
N254        N  0.92350748  0.00120315  0.45942484    -0.78000
C255        C  0.91037195  0.98685947  0.44288611     0.82800
N256        N  0.88765130  0.99449656  0.43189058    -0.79700
C257        C  0.07335131  0.01771301  0.43537062     0.80300
N258        N  0.06227331  0.99669888  0.42988745    -0.78000
C259        C  0.04027952  0.98894485  0.44193000     0.82700
N260        N  0.02841894  0.00272843  0.45969171    -0.78000
C261        C  0.03907323  0.02431871  0.46525713     0.82800
N262        N  0.06167831  0.03165499  0.45303665    -0.79700
C263        C  0.03947754  0.21620655  0.44150368     0.80300
N264        N  0.06125592  0.20750258  0.42961606    -0.78000
C265        C  0.07131249  0.18604375  0.43530328     0.82700
N266        N  0.05889402  0.17260536  0.45276870    -0.78000
C267        C  0.03656235  0.18061683  0.46476840     0.82800
N268        N  0.02683066  0.20272037  0.45922714    -0.79700
O269        O  0.03106439  0.06312684  0.47841164    -0.75200
O270        O  0.00591877  0.03409142  0.49651100    -0.54100
C271        C  0.02450988  0.04137246  0.48148280     0.78500
O272        O  0.02810450  0.14115979  0.57676238    -0.59800
O273        O  0.00518427  0.17019473  0.55603341    -0.52800
C274        C  0.02263820  0.16308279  0.57225946     0.70500
O275        O  0.02805970  0.06110419  0.57559209    -0.74400
O276        O  0.00486847  0.03230115  0.55500121    -0.54900
C277        C  0.02253834  0.03922686  0.57104421     0.76500
O278        O  0.02759387  0.14165209  0.47699160    -0.59500
O279        O  0.00473719  0.17080401  0.49729930    -0.52600
C280        C  0.02191041  0.16354401  0.48094680     0.73100
Zr281      Zr  0.01529959  0.10197900  0.49070791     2.54700
O282        O  0.06376433  0.10394627  0.49350598    -0.80100
O283        O  0.01388585  0.09930153  0.44523288    -0.93500
Zr284      Zr  0.01428035  0.10136139  0.56389020     2.64700
O285        O  0.06290931  0.10140097  0.56343015    -0.98500
O286        O  0.01046804  0.10130316  0.60930993    -0.80500
O287        O  0.01511170  0.07792518  0.52708872    -0.83900
O288        O  0.01556257  0.12526311  0.52739367    -2.18600
O289        O  0.92522389  0.14199927  0.47528209    -0.67300
O290        O  0.94751709  0.17074950  0.49677639    -0.51800
C291        C  0.93080093  0.16382184  0.47988701     0.71500
O292        O  0.92158855  0.06177215  0.57437221    -0.60200
O293        O  0.94553503  0.03260675  0.55504134    -0.52100
C294        C  0.92738141  0.03984966  0.57051543     0.73300
O295        O  0.92112008  0.14151230  0.57430292    -0.71600
O296        O  0.94569499  0.17015639  0.55482058    -0.50200
C297        C  0.92720127  0.16327657  0.56995452     0.74700
O298        O  0.92227661  0.06246245  0.47660806    -0.66900
O299        O  0.94594008  0.03333004  0.49641474    -0.54100
C300        C  0.92817937  0.04055528  0.48050385     0.73100
Zr301      Zr  0.93650380  0.10202873  0.48950530     2.77500
O302        O  0.88806975  0.10447446  0.49300402    -0.97600
O303        O  0.93637048  0.10055245  0.44399177    -0.78500
Zr304      Zr  0.93571273  0.10164482  0.56264955     2.70100
O305        O  0.88707877  0.10151324  0.56235128    -0.79700
O306        O  0.93807680  0.10080081  0.60815735    -0.98800
Zr307      Zr  0.97540015  0.05427745  0.52616903     2.21500
Zr308      Zr  0.97583907  0.14893668  0.52660654     2.11100
O309        O  0.93582855  0.12551876  0.52611193    -2.47500
O310        O  0.93555792  0.07803784  0.52593644    -0.79500
O311        O  0.97596797  0.12524022  0.48956888    -0.65100
O312        O  0.97494439  0.07809647  0.56337364    -2.32700
O313        O  0.97594168  0.07872955  0.48951723    -2.28900
O314        O  0.97503582  0.12500534  0.56368292    -0.73500
H315        H  0.03134179  0.13510499  0.52753894     0.78500
H316        H  0.97470275  0.06818147  0.57813763     0.79600
H317        H  0.92012886  0.13550679  0.52580174     0.81800
H318        H  0.97619851  0.06908968  0.47459791     0.79500
H319        H  0.02798139  0.09542787  0.61530208     0.42500
H320        H  0.95237796  0.11215079  0.61242487     0.41500
H321        H  0.88196246  0.10251056  0.58021717     0.41100
H322        H  0.88124661  0.09642993  0.47786279     0.39100
H323        H  0.91776090  0.10445462  0.43922466     0.42200
H324        H  0.02340775  0.11343961  0.43902294     0.37000
H325        H  0.06965761  0.10796411  0.47634023     0.43100
H326        H  0.06821245  0.09347100  0.57919650     0.39500
H327        H  0.88353380  0.09369303  0.50695993     0.44400
H328        H  0.99492966  0.10217240  0.44089106     0.43200
H329        H  0.06778309  0.09004267  0.55010332     0.43300
H330        H  0.92139834  0.10856918  0.61380033     0.43700
C331        C  0.00156504  0.44654662  0.30410892    -0.10800
C332        C  0.97724715  0.45751250  0.29883784    -0.04600
C333        C  0.95295421  0.44646548  0.30344815    -0.10800
C334        C  0.95252280  0.42602820  0.31873026     0.10200
C335        C  0.97705860  0.41699833  0.32836769    -0.02600
C336        C  0.00181370  0.42629271  0.31977535     0.10000
C337        C  0.02573624  0.41535949  0.32743918    -0.12600
C338        C  0.02549626  0.39678159  0.34491558    -0.12600
C339        C  0.00131851  0.38862231  0.35511046     0.10000
C340        C  0.97681843  0.39815125  0.34588657    -0.02600
C341        C  0.92852396  0.41461678  0.32492862    -0.12700
C342        C  0.92830848  0.39585797  0.34205753    -0.12700
C343        C  0.95205637  0.38819580  0.35353967     0.10200
C344        C  0.95198635  0.37116227  0.37289079    -0.10800
C345        C  0.97582298  0.36572277  0.38500821    -0.04600
C346        C  0.00048710  0.37163706  0.37471208    -0.10800
H347        H  0.04477996  0.42181118  0.32072530     0.07400
H348        H  0.04435049  0.38945796  0.35118625     0.07400
H349        H  0.90971033  0.42077729  0.31729775     0.07600
H350        H  0.90933382  0.38809088  0.34718651     0.07600
H351        H  0.97724714  0.47274037  0.28642388     0.04100
H352        H  0.97525776  0.35238903  0.39966776     0.04100
C353        C  0.30113477  0.12441523  0.26667806    -0.10800
C354        C  0.31227652  0.10353036  0.25763838    -0.04600
C355        C  0.30477852  0.08130402  0.26643275    -0.10800
C356        C  0.28451058  0.07972917  0.28494318     0.10200
C357        C  0.27295682  0.10091120  0.29460381    -0.02600
C358        C  0.28147268  0.12336949  0.28556587     0.10000
C359        C  0.27026524  0.14402003  0.29569016    -0.12600
C360        C  0.25058393  0.14281146  0.31413443    -0.12600
C361        C  0.24128601  0.12091172  0.32282481     0.10000
C362        C  0.25264697  0.09967203  0.31313973    -0.02600
C363        C  0.27559799  0.05783837  0.29417204    -0.12700
C364        C  0.25546751  0.05661458  0.31233442    -0.12700
C365        C  0.24368049  0.07723986  0.32195793     0.10200
C366        C  0.22319868  0.07639465  0.34026118    -0.10800
C367        C  0.21194048  0.09743345  0.34874135    -0.04600
C368        C  0.22087174  0.11946537  0.34098293    -0.10800
H369        H  0.27672763  0.16127517  0.28939842     0.07400
H370        H  0.24249568  0.15916796  0.32144059     0.07400
H371        H  0.28418138  0.04148894  0.28737503     0.07600
H372        H  0.24913091  0.03939043  0.31882772     0.07600
H373        H  0.32676619  0.10463381  0.24254998     0.04100
H374        H  0.19559940  0.09664076  0.36211143     0.04100
C375        C  0.22892974  0.43359792  0.99327348    -0.10800
C376        C  0.21850420  0.44074513  0.01621539    -0.04600
C377        C  0.22851213  0.43268809  0.03897771    -0.10800
C378        C  0.24941531  0.41580604  0.03904786     0.10200
C379        C  0.26018369  0.40795299  0.01576920    -0.02600
C380        C  0.24976241  0.41673574  0.99272736     0.10000
C381        C  0.26035560  0.40840071  0.97003160    -0.12600
C382        C  0.28073637  0.39148792  0.96981656    -0.12600
C383        C  0.29159386  0.38289814  0.99227894     0.10000
C384        C  0.28134982  0.39123882  0.01551868    -0.02600
C385        C  0.25976889  0.40654794  0.06146179    -0.12700
C386        C  0.28027966  0.38971686  0.06116634    -0.12700
C387        C  0.29144306  0.38203583  0.03847802     0.10200
C388        C  0.31264426  0.36549654  0.03788839    -0.10800
C389        C  0.32390367  0.35933484  0.01501670    -0.04600
C390        C  0.31263392  0.36625127  0.99234310    -0.10800
H391        H  0.25280588  0.41483851  0.95229550     0.07400
H392        H  0.28837460  0.38548006  0.95195585     0.07400
H393        H  0.25196151  0.41223242  0.07936735     0.07600
H394        H  0.28774313  0.38302673  0.07883528     0.07600
H395        H  0.20191873  0.45317570  0.01635948     0.04100
H396        H  0.33938651  0.34581760  0.01479768     0.04100
C397        C  0.64848899  0.12573399  0.27009680    -0.10800
C398        C  0.63838503  0.10434064  0.26147910    -0.04600
C399        C  0.64832008  0.08260609  0.26935784    -0.10800
C400        C  0.66877151  0.08179222  0.28744395     0.10200
C401        C  0.67910296  0.10332408  0.29712325    -0.02600
C402        C  0.66924671  0.12547442  0.28818993     0.10000
C403        C  0.68023969  0.14643170  0.29772771    -0.12600
C404        C  0.70056836  0.14576895  0.31573848    -0.12600
C405        C  0.71047703  0.12412805  0.32481221     0.10000
C406        C  0.69959016  0.10264613  0.31547248    -0.02600
C407        C  0.67893677  0.06014877  0.29617848    -0.12700
C408        C  0.69865409  0.05948281  0.31459489    -0.12700
C409        C  0.70912230  0.08044673  0.32451954     0.10200
C410        C  0.72884273  0.08002615  0.34338676    -0.10800
C411        C  0.73959356  0.10120101  0.35181670    -0.04600
C412        C  0.73085850  0.12307974  0.34314303    -0.10800
H413        H  0.67302376  0.16346718  0.29139250     0.07400
H414        H  0.70841882  0.16232782  0.32266299     0.07400
H415        H  0.67133738  0.04355858  0.28908952     0.07600
H416        H  0.70566096  0.04241997  0.32105395     0.07600
H417        H  0.62343741  0.10460394  0.24672695     0.04100
H418        H  0.75557199  0.10062203  0.36558876     0.04100
C419        C  0.95464891  0.76171309  0.29999397    -0.10800
C420        C  0.97953604  0.75291399  0.29304907    -0.04600
C421        C  0.00316474  0.76461378  0.29876316    -0.10800
C422        C  0.00244029  0.78386722  0.31562964     0.10200
C423        C  0.97740355  0.79096800  0.32591033    -0.02600
C424        C  0.95323095  0.78076518  0.31702742     0.10000
C425        C  0.92864948  0.78979192  0.32548589    -0.12600
C426        C  0.92775829  0.80781866  0.34342997    -0.12600
C427        C  0.95141678  0.81697053  0.35364379     0.10000
C428        C  0.97647007  0.80885635  0.34440861    -0.02600
C429        C  0.02568652  0.79603387  0.32266788    -0.12700
C430        C  0.02473352  0.81368416  0.34101469    -0.12700
C431        C  0.00052129  0.81956205  0.35279349     0.10200
C432        C  0.99942028  0.83561898  0.37302530    -0.10800
C433        C  0.97500844  0.83985766  0.38473607    -0.04600
C434        C  0.95104072  0.83379007  0.37319067    -0.10800
H435        H  0.91002373  0.78250429  0.31870943     0.07400
H436        H  0.90849865  0.81391768  0.35006019     0.07400
H437        H  0.04483162  0.79137911  0.31461654     0.07600
H438        H  0.04318419  0.82209699  0.34663952     0.07600
H439        H  0.98029261  0.73863972  0.27945281     0.04100
H440        H  0.97436005  0.85287227  0.39968951     0.04100
C441        C  0.30365626  0.07574571  0.78177918    -0.10800
C442        C  0.31338882  0.09719858  0.79064222    -0.04600
C443        C  0.30479242  0.11897931  0.78143333    -0.10800
C444        C  0.28431085  0.11966276  0.76320744     0.10200
C445        C  0.27384779  0.09801297  0.75386013    -0.02600
C446        C  0.28372216  0.07592383  0.76298949     0.10000
C447        C  0.27367943  0.05485634  0.75288017    -0.12600
C448        C  0.25401975  0.05529574  0.73432901    -0.12600
C449        C  0.24360769  0.07681392  0.72546591     0.10000
C450        C  0.25356831  0.09845132  0.73526147    -0.02600
C451        C  0.27423018  0.14117072  0.75392379    -0.12700
C452        C  0.25395708  0.14158489  0.73593293    -0.12700
C453        C  0.24339502  0.12051044  0.72634704     0.10200
C454        C  0.22317433  0.12061995  0.70779329    -0.10800
C455        C  0.21357222  0.09918441  0.69884289    -0.04600
C456        C  0.22360789  0.07749377  0.70685571    -0.10800
H457        H  0.28112278  0.03788361  0.75917257     0.07400
H458        H  0.24694237  0.03863150  0.72696767     0.07400
H459        H  0.28199783  0.15786888  0.76051959     0.07600
H460        H  0.24672848  0.15854341  0.72937939     0.07600
H461        H  0.32799657  0.09694994  0.80567842     0.04100
H462        H  0.19757857  0.09937687  0.68508092     0.04100
C463        C  0.99945982  0.44610871  0.74669063    -0.10800
C464        C  0.97463587  0.45477668  0.75412001    -0.04600
C465        C  0.95163388  0.44111659  0.75245565    -0.10800
C466        C  0.95198205  0.42044584  0.73763228     0.10200
C467        C  0.97628544  0.41351579  0.72585995    -0.02600
C468        C  0.00049070  0.42551312  0.73161141     0.10000
C469        C  0.02467709  0.41678361  0.72191207    -0.12600
C470        C  0.02495646  0.39758318  0.70530165    -0.12600
C471        C  0.00107028  0.38647752  0.69811403     0.10000
C472        C  0.97656565  0.39398531  0.70924253    -0.02600
C473        C  0.92889705  0.40683823  0.73391412    -0.12700
C474        C  0.92907980  0.38771039  0.71732868    -0.12700
C475        C  0.95242158  0.38157744  0.70423741     0.10200
C476        C  0.95260242  0.36347947  0.68607726    -0.10800
C477        C  0.97608284  0.35841424  0.67330173    -0.04600
C478        C  0.00052568  0.36820257  0.67994939    -0.10800
H479        H  0.04337324  0.42537288  0.72641479     0.07400
H480        H  0.04386943  0.39188476  0.69751974     0.07400
H481        H  0.91034684  0.41150959  0.74310391     0.07600
H482        H  0.91067604  0.37812624  0.71425742     0.07600
H483        H  0.97410059  0.47025099  0.76614875     0.04100
H484        H  0.97584951  0.34403253  0.65980964     0.04100
C485        C  0.22713147  0.77057196  0.00191736    -0.10800
C486        C  0.21746820  0.76370904  0.02521453    -0.04600
C487        C  0.22843246  0.77174662  0.04755414    -0.10800
C488        C  0.24967245  0.78819164  0.04678734     0.10200
C489        C  0.25982525  0.79563894  0.02309875    -0.02600
C490        C  0.24825685  0.78707225  0.00050521     0.10000
C491        C  0.25806978  0.79525546  0.97741715    -0.12600
C492        C  0.27905138  0.81155123  0.97639518    -0.12600
C493        C  0.29136019  0.81960617  0.99839913     0.10000
C494        C  0.28162830  0.81162019  0.02201325    -0.02600
C495        C  0.26097461  0.79738323  0.06876397    -0.12700
C496        C  0.28208764  0.81348461  0.06766013    -0.12700
C497        C  0.29292407  0.82046616  0.04457793     0.10200
C498        C  0.31501375  0.83591849  0.04328339    -0.10800
C499        C  0.32602016  0.84124889  0.02005938    -0.04600
C500        C  0.31344010  0.83522256  0.99770685    -0.10800
H501        H  0.24950079  0.78910413  0.96000248     0.07400
H502        H  0.28612449  0.81736292  0.95825959     0.07400
H503        H  0.25351812  0.79214078  0.08695236     0.07600
H504        H  0.29037896  0.82004566  0.08502687     0.07600
H505        H  0.20078501  0.75146686  0.02599115     0.04100
H506        H  0.34220332  0.85400670  0.01939754     0.04100
C507        C  0.72952705  0.43076483  0.05074861    -0.10800
C508        C  0.74120977  0.43556105  0.02768685    -0.04600
C509        C  0.73146656  0.42648992  0.00536136    -0.10800
C510        C  0.70928567  0.41115782  0.00570717     0.10200
C511        C  0.69696147  0.40565023  0.02904114    -0.02600
C512        C  0.70733828  0.41515860  0.05181073     0.10000
C513        C  0.69522666  0.40879069  0.07456920    -0.12600
C514        C  0.67310957  0.39358402  0.07507084    -0.12600
C515        C  0.66195251  0.38479905  0.05279340     0.10000
C516        C  0.67410168  0.39078522  0.02951799    -0.02600
C517        C  0.69922483  0.40117926  0.98359501    -0.12700
C518        C  0.67703806  0.38628193  0.98413375    -0.12700
C519        C  0.66397253  0.38120819  0.00674605     0.10200
C520        C  0.64071845  0.36708303  0.00731117    -0.10800
C521        C  0.62772685  0.36355943  0.03002372    -0.04600
C522        C  0.63873053  0.37041020  0.05283564    -0.10800
H523        H  0.70283924  0.41556706  0.09211120     0.07400
H524        H  0.66425278  0.38923003  0.09297155     0.07400
H525        H  0.70845301  0.40493480  0.96570865     0.07600
H526        H  0.66973116  0.37917407  0.96662288     0.07600
H527        H  0.75849781  0.44714573  0.02700496     0.04100
H528        H  0.61067700  0.35174170  0.03030661     0.04100
C529        C  0.94603535  0.75806932  0.74779367    -0.10800
C530        C  0.96922720  0.74470391  0.75055822    -0.04600
C531        C  0.99423338  0.75405050  0.74487765    -0.10800
C532        C  0.99552950  0.77476187  0.72970173     0.10200
C533        C  0.97128776  0.78601724  0.72217846    -0.02600
C534        C  0.94651338  0.77833114  0.73236214     0.10000
C535        C  0.92300961  0.79075214  0.72655146    -0.12600
C536        C  0.92341427  0.80963255  0.70964120    -0.12600
C537        C  0.94746938  0.81707949  0.69867268     0.10000
C538        C  0.97187622  0.80575442  0.70566685    -0.02600
C539        C  0.01993281  0.78429097  0.72148808    -0.12700
C540        C  0.02057741  0.80387329  0.70522486    -0.12700
C541        C  0.99683323  0.81457628  0.69672345     0.10200
C542        C  0.99680999  0.83378406  0.67946115    -0.10800
C543        C  0.97248099  0.84277650  0.67116904    -0.04600
C544        C  0.94808866  0.83560220  0.68089636    -0.10800
H545        H  0.90402923  0.78525573  0.73431556     0.07400
H546        H  0.90472681  0.81823378  0.70494252     0.07400
H547        H  0.03862029  0.77618489  0.72708731     0.07600
H548        H  0.03975825  0.81032778  0.69887855     0.07600
H549        H  0.96833120  0.72928687  0.76268015     0.04100
H550        H  0.97264062  0.85773288  0.65836571     0.04100
C551        C  0.64954347  0.12864203  0.77597286    -0.10800
C552        C  0.64188566  0.10705962  0.78608748    -0.04600
C553        C  0.64906579  0.08555374  0.77541064    -0.10800
C554        C  0.66603050  0.08528139  0.75425905     0.10200
C555        C  0.67467875  0.10714779  0.74386058    -0.02600
C556        C  0.66651092  0.12897502  0.75485300     0.10000
C557        C  0.67523938  0.15030943  0.74431014    -0.12600
C558        C  0.69155250  0.15038111  0.72314209    -0.12600
C559        C  0.69948880  0.12912498  0.71175343     0.10000
C560        C  0.69112437  0.10721633  0.72220514    -0.02600
C561        C  0.67426763  0.06402635  0.74308783    -0.12700
C562        C  0.69069744  0.06409002  0.72192238    -0.12700
C563        C  0.69938965  0.08541347  0.71118687     0.10200
C564        C  0.71577522  0.08580447  0.68949846    -0.10800
C565        C  0.72301414  0.10765098  0.67941976    -0.04600
C566        C  0.71552399  0.12908064  0.69004902    -0.10800
H567        H  0.66937775  0.16709548  0.75233802     0.07400
H568        H  0.69762989  0.16724939  0.71548145     0.07400
H569        H  0.66790066  0.04719071  0.75061703     0.07600
H570        H  0.69617829  0.04728057  0.71374828     0.07600
H571        H  0.62937268  0.10700482  0.80271192     0.04100
H572        H  0.73691787  0.10810904  0.66384219     0.04100
C573        C  0.72801469  0.77266375  0.99769363    -0.10800
C574        C  0.73686905  0.76297263  0.02019150    -0.04600
C575        C  0.72801260  0.77106807  0.04332324    -0.10800
C576        C  0.70873274  0.78937094  0.04424204     0.10200
C577        C  0.69824398  0.79861325  0.02141824    -0.02600
C578        C  0.70822506  0.79050271  0.99798857     0.10000
C579        C  0.69818425  0.80038905  0.97574423    -0.12600
C580        C  0.67826604  0.81775489  0.97635510    -0.12600
C581        C  0.66781122  0.82573565  0.99922511     0.10000
C582        C  0.67812845  0.81631283  0.02203403    -0.02600
C583        C  0.69970272  0.79866777  0.06710373    -0.12700
C584        C  0.68030719  0.81647831  0.06769245    -0.12700
C585        C  0.66898843  0.82518003  0.04546527     0.10200
C586        C  0.64857965  0.84245457  0.04579898    -0.10800
C587        C  0.63718540  0.84978188  0.02334762    -0.04600
C588        C  0.64715286  0.84280921  0.00020290    -0.10800
H589        H  0.70548807  0.79450740  0.95771966     0.07400
H590        H  0.67079053  0.82469921  0.95880162     0.07400
H591        H  0.70750549  0.79209013  0.08468638     0.07600
H592        H  0.67371498  0.82304692  0.08569232     0.07600
H593        H  0.75251547  0.74962641  0.01971215     0.04100
H594        H  0.62213200  0.86366075  0.02388316     0.04100
C595        C  0.02460722  0.26906860  0.37066192    -0.17800
C596        C  0.02478553  0.29178499  0.36030651    -0.19900
C597        C  0.02663309  0.31175483  0.37574726     0.20700
C598        C  0.02875695  0.30871319  0.40191083    -0.02800
C599        C  0.02835517  0.28571020  0.41242573    -0.05900
C600        C  0.02624738  0.26586260  0.39666675     0.21000
C601        C  0.03004569  0.28257309  0.43863964     0.19200
C602        C  0.03195301  0.30259708  0.45403679    -0.17400
C603        C  0.03194024  0.32538757  0.44364370    -0.19600
C604        C  0.03022997  0.32866455  0.41760706     0.20700
C605        C  0.02762724  0.35144983  0.40717572    -0.32600
C606        C  0.02187791  0.35442261  0.38145980     0.01400
C607        C  0.02401545  0.33462597  0.36565513    -0.24000
C608        C  0.02679901  0.24310490  0.40705619    -0.28500
C609        C  0.02984174  0.23966291  0.43299809     0.07000
C610        C  0.03075011  0.25950394  0.44882125    -0.27200
H611        H  0.02307646  0.25397311  0.35830080     0.11700
H612        H  0.02293791  0.29374424  0.34021221     0.12900
H613        H  0.03331208  0.30064749  0.47416558     0.11900
H614        H  0.03283403  0.34049618  0.45603913     0.11200
H615        H  0.02559724  0.36650761  0.41955901     0.16600
H616        H  0.01926295  0.33661356  0.34595989     0.12500
H617        H  0.02656734  0.22787390  0.39475354     0.15400
H618        H  0.03381165  0.25700558  0.46872928     0.15100
C619        C  0.18719471  0.15048896  0.41877804    -0.17800
C620        C  0.16447129  0.15684308  0.43249960    -0.19900
C621        C  0.14095661  0.16379804  0.42019936     0.20700
C622        C  0.14056219  0.16481275  0.39376636    -0.02800
C623        C  0.16345531  0.15827549  0.37991126    -0.05900
C624        C  0.18677411  0.15086463  0.39250501     0.21000
C625        C  0.16255466  0.15802653  0.35347822     0.19200
C626        C  0.13911283  0.16513905  0.34117528    -0.17400
C627        C  0.11664077  0.17212216  0.35488456    -0.19600
C628        C  0.11709756  0.17183234  0.38114564     0.20700
C629        C  0.09447920  0.17837170  0.39500156    -0.32600
C630        C  0.09468654  0.17729986  0.42127650     0.01400
C631        C  0.11784200  0.16974574  0.43380422    -0.24000
C632        C  0.20845045  0.14214889  0.37864972    -0.28500
C633        C  0.20661035  0.13965918  0.35249187     0.07000
C634        C  0.18428212  0.14888829  0.33991409    -0.27200
H635        H  0.20489914  0.14468418  0.42872395     0.11700
H636        H  0.16519940  0.15605499  0.45274542     0.12900
H637        H  0.13799312  0.16489841  0.32093006     0.11900
H638        H  0.09872811  0.17737957  0.34493004     0.11200
H639        H  0.07657810  0.18423956  0.38536937     0.16600
H640        H  0.11807820  0.16922323  0.45408369     0.12500
H641        H  0.22537188  0.13443234  0.38838747     0.15400
H642        H  0.18254770  0.14642177  0.31985945     0.15100
C643        C  0.12247466  0.02089557  0.35545073    -0.17800
C644        C  0.14542789  0.02638211  0.34165301    -0.19900
C645        C  0.16829541  0.03511251  0.35367014     0.20700
C646        C  0.16837676  0.03722948  0.38002597    -0.02800
C647        C  0.14491940  0.03242090  0.39387826    -0.05900
C648        C  0.12180731  0.02445945  0.38145555     0.21000
C649        C  0.14431271  0.03643163  0.41999364     0.19200
C650        C  0.16761690  0.04398164  0.43215046    -0.17400
C651        C  0.19093193  0.04845345  0.41848724    -0.19600
C652        C  0.19130749  0.04568311  0.39237155     0.20700
C653        C  0.21321490  0.05345360  0.37822015    -0.32600
C654        C  0.21153566  0.05491045  0.35191721     0.01400
C655        C  0.18997281  0.04395743  0.33973160    -0.24000
C656        C  0.09837237  0.02043959  0.39521068    -0.28500
C657        C  0.09740910  0.02483236  0.42115171     0.07000
C658        C  0.12042375  0.03294316  0.43342483    -0.27200
H659        H  0.10494036  0.01458190  0.34565798     0.11700
H660        H  0.14500461  0.02448474  0.32148557     0.12900
H661        H  0.16766865  0.04688907  0.45218419     0.11900
H662        H  0.20837215  0.05500242  0.42824977     0.11200
H663        H  0.22962514  0.06218771  0.38767065     0.16600
H664        H  0.18839775  0.04522428  0.31953913     0.12500
H665        H  0.08073020  0.01389458  0.38571991     0.15400
H666        H  0.11995818  0.03574418  0.45348315     0.15100
C667        C  0.01597931  0.91717049  0.36009355    -0.17800
C668        C  0.01617595  0.93939161  0.37147799    -0.19900
C669        C  0.02169637  0.94155519  0.39711075     0.20700
C670        C  0.02748007  0.92120855  0.41138688    -0.02800
C671        C  0.02736702  0.89876554  0.39985834    -0.05900
C672        C  0.02127188  0.89674066  0.37416033     0.21000
C673        C  0.03229544  0.87829897  0.41424079     0.19200
C674        C  0.03846132  0.88056600  0.43976261    -0.17400
C675        C  0.03921213  0.90287081  0.45106835    -0.19600
C676        C  0.03342492  0.92329013  0.43714500     0.20700
C677        C  0.03445259  0.94580413  0.44823450    -0.32600
C678        C  0.02962260  0.96610115  0.43380853     0.01400
C679        C  0.02259537  0.96380213  0.40848072    -0.24000
C680        C  0.01834455  0.87427181  0.36347443    -0.28500
C681        C  0.01968590  0.85389205  0.37850220     0.07000
C682        C  0.02876855  0.85592977  0.40334892    -0.27200
H683        H  0.01109313  0.91592056  0.34038878     0.11700
H684        H  0.01188129  0.95489136  0.36024654     0.12900
H685        H  0.04228362  0.86503892  0.45109231     0.11900
H686        H  0.04405145  0.90412537  0.47078247     0.11200
H687        H  0.04085349  0.94765560  0.46751619     0.16600
H688        H  0.01973324  0.97955808  0.39720370     0.12500
H689        H  0.01083382  0.87281988  0.34449391     0.15400
H690        H  0.02931457  0.84031075  0.41510209     0.15100
C691        C  0.80620757  0.02966944  0.34389261    -0.17800
C692        C  0.82895495  0.02335203  0.35755964    -0.19900
C693        C  0.82931462  0.02561070  0.38370865     0.20700
C694        C  0.80623232  0.03341923  0.39636665    -0.02800
C695        C  0.78305257  0.03926812  0.38259861    -0.05900
C696        C  0.78334671  0.03810049  0.35617411     0.21000
C697        C  0.76022837  0.04779775  0.39514540     0.19200
C698        C  0.76041323  0.04957325  0.42135568    -0.17400
C699        C  0.78344545  0.04391182  0.43498868    -0.19600
C700        C  0.80663260  0.03622929  0.42266113     0.20700
C701        C  0.83026133  0.03148810  0.43606188    -0.32600
C702        C  0.85316001  0.02348923  0.42346858     0.01400
C703        C  0.85246264  0.02043766  0.39737925    -0.24000
C704        C  0.76190879  0.04759973  0.34247908    -0.28500
C705        C  0.74060440  0.05861064  0.35494995     0.07000
C706        C  0.73870216  0.05662735  0.38116265    -0.27200
H707        H  0.80679075  0.02865644  0.32365540     0.11700
H708        H  0.84653482  0.01730186  0.34760873     0.12900
H709        H  0.74306073  0.05619681  0.43125018     0.11900
H710        H  0.78328609  0.04600103  0.45513768     0.11200
H711        H  0.83066920  0.03338971  0.45624202     0.16600
H712        H  0.87012885  0.01411521  0.38770826     0.12500
H713        H  0.76353052  0.04935095  0.32232779     0.15400
H714        H  0.72238137  0.06541224  0.39075928     0.15100
C715        C  0.94183646  0.93729667  0.37405449    -0.17800
C716        C  0.94183031  0.91543965  0.36182761    -0.19900
C717        C  0.93231946  0.89513523  0.37398941     0.20700
C718        C  0.92267224  0.89687790  0.39870608    -0.02800
C719        C  0.92244982  0.91902216  0.41099564    -0.05900
C720        C  0.93213528  0.93930310  0.39860870     0.21000
C721        C  0.91253888  0.92085903  0.43564678     0.19200
C722        C  0.90323746  0.90047685  0.44782800    -0.17400
C723        C  0.90438248  0.87840726  0.43598103    -0.19600
C724        C  0.91425748  0.87635522  0.41148586     0.20700
C725        C  0.91805812  0.85403226  0.40036295    -0.32600
C726        C  0.93016907  0.85211598  0.37666312     0.01400
C727        C  0.93445990  0.87286026  0.36263960    -0.24000
C728        C  0.93108457  0.96135183  0.41066350    -0.28500
C729        C  0.92032199  0.96350024  0.43487466     0.07000
C730        C  0.91137245  0.94312604  0.44736012    -0.27200
H731        H  0.94943531  0.95265265  0.36428235     0.11700
H732        H  0.94982026  0.91432728  0.34302306     0.12900
H733        H  0.89543012  0.90154492  0.46669681     0.11900
H734        H  0.89786213  0.86287754  0.44612326     0.11200
H735        H  0.91507633  0.83819276  0.41142527     0.16600
H736        H  0.94427543  0.87149650  0.34459348     0.12500
H737        H  0.93698793  0.97714425  0.40059546     0.15400
H738        H  0.90204537  0.94484948  0.46557466     0.15100
C739        C  0.90552012  0.32698772  0.43625346    -0.17800
C740        C  0.90446448  0.30500046  0.44835446    -0.19900
C741        C  0.91423553  0.28456181  0.43654690     0.20700
C742        C  0.92456582  0.28627724  0.41203658    -0.02800
C743        C  0.92459496  0.30828845  0.39945278    -0.05900
C744        C  0.91570239  0.32887267  0.41184141     0.21000
C745        C  0.93441449  0.30981943  0.37477506     0.19200
C746        C  0.94447749  0.28950599  0.36302185    -0.17400
C747        C  0.94477703  0.26781295  0.37557207    -0.19600
C748        C  0.93474871  0.26597310  0.40001384     0.20700
C749        C  0.93376158  0.24401498  0.41223418    -0.32600
C750        C  0.92241244  0.24192004  0.43618359     0.01400
C751        C  0.91302808  0.26232588  0.44839943    -0.24000
C752        C  0.91924481  0.35108341  0.40036692    -0.28500
C753        C  0.93137476  0.35277763  0.37662922     0.07000
C754        C  0.93610721  0.33191983  0.36300918    -0.27200
H755        H  0.89859872  0.34256535  0.44609474     0.11700
H756        H  0.89631755  0.30403640  0.46710410     0.12900
H757        H  0.95262135  0.29048445  0.34426755     0.11900
H758        H  0.95274966  0.25242630  0.36609455     0.11200
H759        H  0.94003914  0.22820071  0.40239146     0.16600
H760        H  0.90333131  0.26064209  0.46644629     0.12500
H761        H  0.91597512  0.36704099  0.41115357     0.15400
H762        H  0.94594361  0.33314014  0.34496196     0.15100
C763        C  0.76364601  0.15538881  0.42051341    -0.17800
C764        C  0.78614604  0.16200305  0.43435828    -0.19900
C765        C  0.80976535  0.16870237  0.42217509     0.20700
C766        C  0.81045455  0.16932007  0.39572663    -0.02800
C767        C  0.78777863  0.16254431  0.38175466    -0.05900
C768        C  0.76438463  0.15531635  0.39424705     0.21000
C769        C  0.78896917  0.16187870  0.35533885     0.19200
C770        C  0.81243273  0.16901016  0.34314857    -0.17400
C771        C  0.83470536  0.17621733  0.35696909    -0.19600
C772        C  0.83402008  0.17611941  0.38322018     0.20700
C773        C  0.85656360  0.18248887  0.39718062    -0.32600
C774        C  0.85612332  0.18155128  0.42342950     0.01400
C775        C  0.83276576  0.17460618  0.43589947    -0.24000
C776        C  0.74289855  0.14641892  0.38034980    -0.28500
C777        C  0.74500255  0.14346324  0.35427105     0.07000
C778        C  0.76748331  0.15238897  0.34173691    -0.27200
H779        H  0.74586228  0.14973985  0.43037151     0.11700
H780        H  0.78518965  0.16154729  0.45460670     0.12900
H781        H  0.81374154  0.16857819  0.32291923     0.11900
H782        H  0.85267071  0.18141943  0.34712021     0.11200
H783        H  0.87464948  0.18796522  0.38765474     0.16600
H784        H  0.83239340  0.17426905  0.45618313     0.12500
H785        H  0.72590730  0.13889877  0.39007512     0.15400
H786        H  0.76948230  0.14952851  0.32176365     0.15100
C787        C  0.03351460  0.29179303  0.69014073    -0.17800
C788        C  0.03261223  0.26925392  0.67954297    -0.19900
C789        C  0.03107774  0.26645751  0.65350293     0.20700
C790        C  0.03066621  0.28650814  0.63788436    -0.02800
C791        C  0.03124030  0.30935829  0.64865375    -0.05900
C792        C  0.03248351  0.31196894  0.67491702     0.21000
C793        C  0.02945391  0.32953835  0.63327367     0.19200
C794        C  0.02839790  0.32665247  0.60714885    -0.17400
C795        C  0.02877388  0.30399471  0.59641874    -0.19600
C796        C  0.02965001  0.28371058  0.61159838     0.20700
C797        C  0.03052484  0.26074826  0.60111010    -0.32600
C798        C  0.03191169  0.24074930  0.61678135     0.01400
C799        C  0.03108136  0.24388611  0.64287706    -0.24000
C800        C  0.03006829  0.33452424  0.68564800    -0.28500
C801        C  0.02359295  0.35414358  0.67066043     0.07000
C802        C  0.02626657  0.35196561  0.64440875    -0.27200
H803        H  0.03426152  0.29343760  0.71032445     0.11700
H804        H  0.03315887  0.25396481  0.69175077     0.12900
H805        H  0.02688960  0.34193109  0.59499940     0.11900
H806        H  0.02806193  0.30234247  0.57623595     0.11200
H807        H  0.03182755  0.25852751  0.58100670     0.16600
H808        H  0.03257582  0.22855665  0.65501287     0.12500
H809        H  0.02801063  0.33600003  0.70579457     0.15400
H810        H  0.02121236  0.36696257  0.63267685     0.15100
C811        C  0.16846565  0.15999667  0.61658263    -0.17800
C812        C  0.19117937  0.15347088  0.63026910    -0.19900
C813        C  0.19096319  0.15409429  0.65654328     0.20700
C814        C  0.16811253  0.16249277  0.66913838    -0.02800
C815        C  0.14525201  0.16931016  0.65529805    -0.05900
C816        C  0.14518051  0.16743427  0.62890849     0.21000
C817        C  0.12216455  0.17716683  0.66792276     0.19200
C818        C  0.12231633  0.17867735  0.69415149    -0.17400
C819        C  0.14469454  0.17132058  0.70786626    -0.19600
C820        C  0.16748855  0.16267830  0.69558303     0.20700
C821        C  0.18861886  0.15231460  0.70916216    -0.32600
C822        C  0.21023760  0.14180913  0.69655266     0.01400
C823        C  0.21221157  0.14449477  0.67039559    -0.24000
C824        C  0.12176219  0.17274750  0.61539233    -0.28500
C825        C  0.09871798  0.18047156  0.62793842     0.07000
C826        C  0.09921725  0.18301762  0.65412683    -0.27200
H827        H  0.16893197  0.15873433  0.59636006     0.11700
H828        H  0.20859879  0.14708144  0.62030996     0.12900
H829        H  0.10480791  0.18487416  0.70411295     0.11900
H830        H  0.14387817  0.17176094  0.72811816     0.11200
H831        H  0.18676143  0.14995800  0.72922214     0.16600
H832        H  0.22861959  0.13604122  0.66060355     0.12500
H833        H  0.12159138  0.17137608  0.59516028     0.15400
H834        H  0.08151785  0.18929883  0.66377381     0.15100
C835        C  0.90616261  0.32585376  0.61936028    -0.17800
C836        C  0.90454698  0.30496250  0.60540895    -0.19900
C837        C  0.91268370  0.28332577  0.61582802     0.20700
C838        C  0.92228127  0.28273570  0.64066949    -0.02800
C839        C  0.92300689  0.30368296  0.65502740    -0.05900
C840        C  0.91539905  0.32542223  0.64417046     0.21000
C841        C  0.93213763  0.30298304  0.67999755     0.19200
C842        C  0.94044938  0.28140004  0.69039136    -0.17400
C843        C  0.93995653  0.26070328  0.67611862    -0.19600
C844        C  0.93086965  0.26116812  0.65128029     0.20700
C845        C  0.92901369  0.24026981  0.63728717    -0.32600
C846        C  0.91801388  0.24052766  0.61311715     0.01400
C847        C  0.91035033  0.26213411  0.60228279    -0.24000
C848        C  0.91925086  0.34649109  0.65760849    -0.28500
C849        C  0.93125050  0.34602821  0.68143693     0.07000
C850        C  0.93495188  0.32412089  0.69343213    -0.27200
H851        H  0.90038170  0.34239376  0.61066566     0.11700
H852        H  0.89708886  0.30575549  0.58639313     0.12900
H853        H  0.94782207  0.28059906  0.70943749     0.11900
H854        H  0.94653287  0.24428321  0.68457320     0.11200
H855        H  0.93409483  0.22349643  0.64591447     0.16600
H856        H  0.90109360  0.26221922  0.58393780     0.12500
H857        H  0.91674737  0.36330760  0.64814510     0.15400
H858        H  0.94460356  0.32370273  0.71160762     0.15100
C859        C  0.79873467  0.16986492  0.69486935    -0.17800
C860        C  0.82222659  0.17572172  0.68228433    -0.19900
C861        C  0.82253887  0.17733681  0.65611099     0.20700
C862        C  0.79890801  0.17335927  0.64238436    -0.02800
C863        C  0.77509078  0.16766181  0.65513707    -0.05900
C864        C  0.77516432  0.16558322  0.68148725     0.21000
C865        C  0.75161658  0.16283189  0.64149768     0.19200
C866        C  0.75194756  0.16458641  0.61526505    -0.17400
C867        C  0.77556013  0.17039029  0.60260347    -0.19600
C868        C  0.79926334  0.17449193  0.61595130     0.20700
C869        C  0.82334613  0.17960850  0.60347353    -0.32600
C870        C  0.84671493  0.18388208  0.61728009     0.01400
C871        C  0.84615444  0.18278019  0.64346531    -0.24000
C872        C  0.75241513  0.15722218  0.69384665    -0.28500
C873        C  0.73011209  0.14979905  0.68013010     0.07000
C874        C  0.72901871  0.15434354  0.65419162    -0.27200
H875        H  0.79916309  0.16812383  0.71505751     0.11700
H876        H  0.84027586  0.17865984  0.69301783     0.12900
H877        H  0.73411307  0.16085951  0.60449349     0.11900
H878        H  0.77538136  0.17129163  0.58235123     0.11200
H879        H  0.82384743  0.18072596  0.58322644     0.16600
H880        H  0.86428331  0.18613703  0.65399106     0.12500
H881        H  0.75345295  0.15334047  0.71370529     0.15400
H882        H  0.71194628  0.14821921  0.64354341     0.15100
C883        C  0.91390045  0.87786625  0.61090107    -0.17800
C884        C  0.91345979  0.90026993  0.59965694    -0.19900
C885        C  0.91488262  0.92081789  0.61430270     0.20700
C886        C  0.91602509  0.91863701  0.64064651    -0.02800
C887        C  0.91623717  0.89602704  0.65200557    -0.05900
C888        C  0.91568237  0.87554455  0.63703268     0.21000
C889        C  0.91841700  0.89393458  0.67827318     0.19200
C890        C  0.91911915  0.91442120  0.69300489    -0.17400
C891        C  0.91843729  0.93676872  0.68181308    -0.19600
C892        C  0.91731751  0.93904408  0.65566891     0.20700
C893        C  0.91691124  0.96140306  0.64435481    -0.32600
C894        C  0.91522704  0.96387546  0.61818207     0.01400
C895        C  0.91454558  0.94347678  0.60319029    -0.24000
C896        C  0.91950643  0.85328453  0.64825678    -0.28500
C897        C  0.92565385  0.85150579  0.67396746     0.07000
C898        C  0.92241121  0.87157754  0.68913824    -0.27200
H899        H  0.91356382  0.86232755  0.59908730     0.11700
H900        H  0.91236248  0.90151139  0.57945311     0.12900
H901        H  0.92087135  0.91316997  0.71317191     0.11900
H902        H  0.91922526  0.95230341  0.69361378     0.11200
H903        H  0.91653791  0.97707666  0.65601649     0.16600
H904        H  0.91216152  0.94525478  0.58311652     0.12500
H905        H  0.92230175  0.83791731  0.63643444     0.15400
H906        H  0.92739990  0.87038721  0.70885420     0.15100
C907        C  0.78826357  0.02766311  0.69439963    -0.17800
C908        C  0.81191061  0.01962514  0.68325515    -0.19900
C909        C  0.81746504  0.02484454  0.65809128     0.20700
C910        C  0.79835406  0.03701562  0.64359963    -0.02800
C911        C  0.77387809  0.04397250  0.65451639    -0.05900
C912        C  0.76936876  0.04034657  0.68033832     0.21000
C913        C  0.75459840  0.05578963  0.63993367     0.19200
C914        C  0.75982573  0.06047334  0.61459009    -0.17400
C915        C  0.78450508  0.05445599  0.60405288    -0.19600
C916        C  0.80403568  0.04295247  0.61845333     0.20700
C917        C  0.82911578  0.03731013  0.60820620    -0.32600
C918        C  0.84802788  0.02481544  0.62244182     0.01400
C919        C  0.84192757  0.01842411  0.64726779    -0.24000
C920        C  0.74736705  0.05132866  0.69197082    -0.28500
C921        C  0.72933314  0.06498493  0.67778633     0.07000
C922        C  0.73154441  0.06468049  0.65144324    -0.27200
H923        H  0.78504551  0.02443921  0.71415431     0.11700
H924        H  0.82630675  0.01008577  0.69457320     0.12900
H925        H  0.74527383  0.06973840  0.60319262     0.11900
H926        H  0.78839065  0.05896958  0.58468782     0.11200
H927        H  0.83359884  0.04192156  0.58896752     0.16600
H928        H  0.85648542  0.00876010  0.65831731     0.12500
H929        H  0.74602899  0.05139302  0.71220905     0.15400
H930        H  0.71752366  0.07493383  0.64036527     0.15100
C931        C  0.14514732  0.02826099  0.70598339    -0.17800
C932        C  0.12254933  0.02187616  0.69219784    -0.19900
C933        C  0.12236382  0.02414493  0.66604202     0.20700
C934        C  0.14551108  0.03187213  0.65349117    -0.02800
C935        C  0.16854625  0.03772055  0.66736640    -0.05900
C936        C  0.16804649  0.03666939  0.69379413     0.21000
C937        C  0.19146044  0.04607725  0.65488994     0.19200
C938        C  0.19152333  0.04765775  0.62867035    -0.17400
C939        C  0.16862496  0.04201297  0.61492909    -0.19600
C940        C  0.14533989  0.03456449  0.62717102     0.20700
C941        C  0.12184664  0.02991973  0.61364109    -0.32600
C942        C  0.09888240  0.02211998  0.62613739     0.01400
C943        C  0.09934104  0.01906540  0.65223703    -0.24000
C944        C  0.18941134  0.04609896  0.70753846    -0.28500
C945        C  0.21095603  0.05670868  0.69509653     0.07000
C946        C  0.21290907  0.05480788  0.66891121    -0.27200
H947        H  0.14443717  0.02727077  0.72622050     0.11700
H948        H  0.10494117  0.01580464  0.70205289     0.12900
H949        H  0.20897615  0.05409785  0.61884015     0.11900
H950        H  0.16896052  0.04394047  0.59475959     0.11200
H951        H  0.12160384  0.03169775  0.59344069     0.16600
H952        H  0.08161597  0.01275423  0.66178498     0.12500
H953        H  0.18772059  0.04789379  0.72767779     0.15400
H954        H  0.22937449  0.06336922  0.65935990     0.15100
C955        C  0.03029695  0.89816018  0.59709124    -0.17800
C956        C  0.02896584  0.87565530  0.60811893    -0.19900
C957        C  0.02856684  0.87303183  0.63429344     0.20700
C958        C  0.03001857  0.89333250  0.64946273    -0.02800
C959        C  0.03089596  0.91608996  0.63832476    -0.05900
C960        C  0.03094491  0.91859001  0.61197510     0.21000
C961        C  0.03136941  0.93633739  0.65360325     0.19200
C962        C  0.03155651  0.93378127  0.67973871    -0.17400
C963        C  0.03046593  0.91133570  0.69071427    -0.19600
C964        C  0.02927437  0.89097851  0.67577655     0.20700
C965        C  0.02490449  0.86860933  0.68663258    -0.32600
C966        C  0.01982705  0.84872532  0.67153567     0.01400
C967        C  0.02433567  0.85075116  0.64548595    -0.24000
C968        C  0.03220788  0.94138993  0.60109575    -0.28500
C969        C  0.03312047  0.96162399  0.61636261     0.07000
C970        C  0.03221630  0.95880463  0.64255554    -0.27200
H971        H  0.03042977  0.89958692  0.57687545     0.11700
H972        H  0.02767995  0.86028723  0.59612183     0.12900
H973        H  0.03218936  0.94919395  0.69173064     0.11900
H974        H  0.02986216  0.90994018  0.71092583     0.11200
H975        H  0.02109398  0.86744188  0.70657242     0.16600
H976        H  0.02002809  0.83571249  0.63361700     0.12500
H977        H  0.03391879  0.94331453  0.58098023     0.15400
H978        H  0.03368765  0.97427693  0.65444219     0.15100
C979        C  0.30744380  0.17646540  0.16869849    -0.17800
C980        C  0.29394430  0.16994596  0.19057013    -0.19900
C981        C  0.30824725  0.16420411  0.21234494     0.20700
C982        C  0.33637496  0.16625901  0.21240229    -0.02800
C983        C  0.35005114  0.17217017  0.19012268    -0.05900
C984        C  0.33547837  0.17698275  0.16811710     0.21000
C985        C  0.37829561  0.17236391  0.18963563     0.19200
C986        C  0.39248899  0.16800214  0.21182949    -0.17400
C987        C  0.37893354  0.16240465  0.23396432    -0.19600
C988        C  0.35096078  0.16079594  0.23423615     0.20700
C989        C  0.33760391  0.15150554  0.25509562    -0.32600
C990        C  0.31022187  0.14615143  0.25374961     0.01400
C991        C  0.29527831  0.15423795  0.23316338    -0.24000
C992        C  0.34918820  0.18193778  0.14584703    -0.28500
C993        C  0.37726167  0.18152047  0.14500929     0.07000
C994        C  0.39176856  0.17674965  0.16695257    -0.27200
H995        H  0.29597119  0.18035319  0.15199294     0.11700
H996        H  0.27236016  0.16864356  0.19020787     0.12900
H997        H  0.41411956  0.16839859  0.21194805     0.11900
H998        H  0.39040995  0.15832800  0.25061762     0.11200
H999        H  0.34912997  0.14503736  0.27087717     0.16600
H1000       H  0.27422307  0.14992427  0.23197739     0.12500
H1001       H  0.33802342  0.18603814  0.12899028     0.15400
H1002       H  0.41341030  0.17707659  0.16647378     0.15100
C1003       C  0.31545685  0.26371398  0.06630759    -0.17800
C1004       C  0.30258418  0.28549817  0.06342923    -0.19900
C1005       C  0.31703286  0.30663982  0.06525345     0.20700
C1006       C  0.34470878  0.30581997  0.07027531    -0.02800
C1007       C  0.35775777  0.28380023  0.07303867    -0.05900
C1008       C  0.34300541  0.26269387  0.07101930     0.21000
C1009       C  0.38552792  0.28289973  0.07775968     0.19200
C1010       C  0.39993352  0.30406997  0.07958541    -0.17400
C1011       C  0.38708073  0.32588146  0.07637200    -0.19600
C1012       C  0.35952350  0.32695093  0.07155567     0.20700
C1013       C  0.34695847  0.34856629  0.06598541    -0.32600
C1014       C  0.32001207  0.34916252  0.05843109     0.01400
C1015       C  0.30472408  0.32841667  0.06012217    -0.24000
C1016       C  0.35590694  0.24094788  0.07442017    -0.28500
C1017       C  0.38332588  0.23992764  0.07985157     0.07000
C1018       C  0.39818304  0.26088609  0.08119323    -0.27200
H1019       H  0.30387105  0.24763972  0.06474337     0.11700
H1020       H  0.28138968  0.28579387  0.05933299     0.12900
H1021       H  0.42121051  0.30375765  0.08327577     0.11900
H1022       H  0.39879309  0.34192491  0.07727823     0.11200
H1023       H  0.35893706  0.36440109  0.06411001     0.16600
H1024       H  0.28415876  0.32869492  0.05372154     0.12500
H1025       H  0.34438016  0.22474682  0.07405733     0.15400
H1026       H  0.41916789  0.26008892  0.08614403     0.15100
C1027       C  0.38619361  0.05345743  0.22701551    -0.17800
C1028       C  0.39825450  0.04633557  0.20459321    -0.19900
C1029       C  0.38289940  0.03642844  0.18531290     0.20700
C1030       C  0.35528578  0.03270653  0.18917626    -0.02800
C1031       C  0.34308123  0.04000661  0.21176831    -0.05900
C1032       C  0.35853969  0.05086160  0.23054094     0.21000
C1033       C  0.31514635  0.03785641  0.21485509     0.19200
C1034       C  0.29996453  0.02714447  0.19595980    -0.17400
C1035       C  0.31210596  0.01951626  0.17380379    -0.19600
C1036       C  0.33961231  0.02267231  0.17003252     0.20700
C1037       C  0.35155175  0.01655457  0.14719755    -0.32600
C1038       C  0.37880153  0.02095900  0.14286760     0.01400
C1039       C  0.39445573  0.03074325  0.16204602    -0.24000
C1040       C  0.34576401  0.06076382  0.25145870    -0.28500
C1041       C  0.31762945  0.06108502  0.25321480     0.07000
C1042       C  0.30260675  0.04830736  0.23566028    -0.27200
H1043       H  0.39835824  0.06179518  0.24124552     0.11700
H1044       H  0.41948756  0.04913684  0.20209061     0.12900
H1045       H  0.27853887  0.02531835  0.19798819     0.11900
H1046       H  0.29981726  0.01178032  0.15928769     0.11200
H1047       H  0.33945793  0.00892793  0.13244458     0.16600
H1048       H  0.41556563  0.03374939  0.15889042     0.12500
H1049       H  0.35739358  0.07090865  0.26476238     0.15400
H1050       H  0.28098444  0.04883574  0.23664131     0.15100
C1051       C  0.30337830  0.91586093  0.06678967    -0.17800
C1052       C  0.31553025  0.93806779  0.06734665    -0.19900
C1053       C  0.34331786  0.94004330  0.07002305     0.20700
C1054       C  0.35905474  0.91945345  0.07229417    -0.02800
C1055       C  0.34676257  0.89698972  0.07168385    -0.05900
C1056       C  0.31881261  0.89522035  0.06872803     0.21000
C1057       C  0.36252368  0.87632994  0.07293289     0.19200
C1058       C  0.39032063  0.87834456  0.07578204    -0.17400
C1059       C  0.40243443  0.90061848  0.07706352    -0.19600
C1060       C  0.38703861  0.92131587  0.07511137     0.20700
C1061       C  0.39893153  0.94381986  0.07672932    -0.32600
C1062       C  0.38313130  0.96434931  0.07538117     0.01400
C1063       C  0.35549103  0.96228043  0.07139359    -0.24000
C1064       C  0.30706136  0.87295303  0.06546460    -0.28500
C1065       C  0.32308912  0.85264895  0.06321353     0.07000
C1066       C  0.35048728  0.85419401  0.06910346    -0.27200
H1067       H  0.28194079  0.91482454  0.06425492     0.11700
H1068       H  0.30317246  0.95372708  0.06564013     0.12900
H1069       H  0.40276285  0.86267558  0.07662778     0.11900
H1070       H  0.42390553  0.90165023  0.07931046     0.11200
H1071       H  0.42011245  0.94535907  0.08059527     0.16600
H1072       H  0.34321784  0.97809786  0.07103353     0.12500
H1073       H  0.28606922  0.87191552  0.06055459     0.15400
H1074       H  0.36298578  0.83865614  0.06694954     0.15100
C1075       C  0.29657906  0.02132257  0.85230723    -0.17800
C1076       C  0.30879218  0.01365279  0.87450040    -0.19900
C1077       C  0.33635319  0.01675252  0.87819323     0.20700
C1078       C  0.35202356  0.02621809  0.85870831    -0.02800
C1079       C  0.33984561  0.03308095  0.83594974    -0.05900
C1080       C  0.31182180  0.03163972  0.83315185     0.21000
C1081       C  0.35549543  0.04300492  0.81672688     0.19200
C1082       C  0.38318219  0.04531167  0.82004798    -0.17400
C1083       C  0.39511869  0.03904709  0.84276866    -0.19600
C1084       C  0.37964244  0.03002549  0.86241405     0.20700
C1085       C  0.39112964  0.02550808  0.88591981    -0.32600
C1086       C  0.37553110  0.01659925  0.90552858     0.01400
C1087       C  0.34836894  0.01146970  0.90130692    -0.24000
C1088       C  0.29945129  0.04252914  0.81240866    -0.28500
C1089       C  0.31491713  0.05446268  0.79443219     0.07000
C1090       C  0.34295980  0.05258317  0.79556889    -0.27200
H1091       H  0.27509604  0.01986524  0.85045700     0.11700
H1092       H  0.29648879  0.00623709  0.88920421     0.12900
H1093       H  0.39544652  0.05300504  0.80548003     0.11900
H1094       H  0.41636123  0.04184933  0.84520025     0.11200
H1095       H  0.41219934  0.02882391  0.88897466     0.16600
H1096       H  0.33637746  0.00425807  0.91637369     0.12500
H1097       H  0.27787418  0.04407308  0.81178744     0.15400
H1098       H  0.35490351  0.06193435  0.78184280     0.15100
C1099       C  0.38747474  0.87709463  0.96445989    -0.17800
C1100       C  0.40032991  0.89907648  0.96551941    -0.19900
C1101       C  0.38578597  0.91977121  0.97065737     0.20700
C1102       C  0.35791552  0.91822976  0.97440703    -0.02800
C1103       C  0.34483134  0.89615675  0.97253966    -0.05900
C1104       C  0.35973761  0.87540667  0.96808447     0.21000
C1105       C  0.31693487  0.89474815  0.97603451     0.19200
C1106       C  0.30233769  0.91539998  0.98104335    -0.17400
C1107       C  0.31527861  0.93718693  0.98303962    -0.19600
C1108       C  0.34302687  0.93878497  0.97979210     0.20700
C1109       C  0.35585991  0.96077599  0.98046812    -0.32600
C1110       C  0.38321597  0.96275157  0.97496523     0.01400
C1111       C  0.39827982  0.94209223  0.97084845    -0.24000
C1112       C  0.34701674  0.85326242  0.96967698    -0.28500
C1113       C  0.31994821  0.85176163  0.97696825     0.07000
C1114       C  0.30448158  0.87254384  0.97684577    -0.27200
H1115       H  0.39930600  0.86135640  0.96114068     0.11700
H1116       H  0.42170296  0.89986393  0.96247944     0.12900
H1117       H  0.28095308  0.91462681  0.98401560     0.11900
H1118       H  0.30353507  0.95283762  0.98702866     0.11200
H1119       H  0.34405047  0.97671225  0.98283585     0.16600
H1120       H  0.41916630  0.94357757  0.96575119     0.12500
H1121       H  0.35909423  0.83733702  0.96968963     0.15400
H1122       H  0.28365518  0.87155130  0.98233583     0.15100
C1123       C  0.38727945  0.32715039  0.95644904    -0.17800
C1124       C  0.40091302  0.30551390  0.95656140    -0.19900
C1125       C  0.38719065  0.28439195  0.96131180     0.20700
C1126       C  0.35928852  0.28504557  0.96524589    -0.02800
C1127       C  0.34543711  0.30678135  0.96439842    -0.05900
C1128       C  0.35961344  0.32800629  0.96068226     0.21000
C1129       C  0.31759316  0.30738922  0.96848945     0.19200
C1130       C  0.30373523  0.28623319  0.97268947    -0.17400
C1131       C  0.31744841  0.26471123  0.97356250    -0.19600
C1132       C  0.34521134  0.26398853  0.97012126     0.20700
C1133       C  0.35896806  0.24245485  0.97047857    -0.32600
C1134       C  0.38643898  0.24154628  0.96535167     0.01400
C1135       C  0.40062162  0.26254659  0.96127590    -0.24000
C1136       C  0.34634175  0.34972222  0.96372188    -0.28500
C1137       C  0.31945245  0.35026587  0.97140758     0.07000
C1138       C  0.30455910  0.32923891  0.97076851    -0.27200
H1139       H  0.39848056  0.34327577  0.95357521     0.11700
H1140       H  0.42226800  0.30533997  0.95329121     0.12900
H1141       H  0.28238833  0.28639985  0.97600944     0.11900
H1142       H  0.30635358  0.24863304  0.97707278     0.11200
H1143       H  0.34793991  0.22610813  0.97270334     0.16600
H1144       H  0.42161888  0.26170657  0.95638088     0.12500
H1145       H  0.35789223  0.36588871  0.96429773     0.15400
H1146       H  0.28387055  0.32959877  0.97679932     0.15100
C1147       C  0.30154160  0.17748808  0.84825042    -0.17800
C1148       C  0.31431736  0.18623813  0.86960229    -0.19900
C1149       C  0.34174867  0.18234204  0.87330203     0.20700
C1150       C  0.35676595  0.17064574  0.85474218    -0.02800
C1151       C  0.34403672  0.16254998  0.83281248    -0.05900
C1152       C  0.31610136  0.16515694  0.83000498     0.21000
C1153       C  0.35897575  0.15046795  0.81449068     0.19200
C1154       C  0.38653087  0.14709195  0.81789356    -0.17400
C1155       C  0.39902918  0.15468430  0.83984643    -0.19600
C1156       C  0.38424985  0.16606926  0.85858441     0.20700
C1157       C  0.39628805  0.17242347  0.88132298    -0.32600
C1158       C  0.38133941  0.18387078  0.89987858     0.01400
C1159       C  0.35427446  0.18927479  0.89554685    -0.24000
C1160       C  0.30299750  0.15359055  0.81024739    -0.28500
C1161       C  0.31763256  0.13981147  0.79321931     0.07000
C1162       C  0.34575189  0.14009619  0.79423124    -0.27200
H1163       H  0.28014488  0.17978332  0.84635358     0.11700
H1164       H  0.30255256  0.19531076  0.88365200     0.12900
H1165       H  0.39822488  0.13771182  0.80402120     0.11900
H1166       H  0.42014703  0.15120318  0.84239555     0.11200
H1167       H  0.41725865  0.16867160  0.88453934     0.16600
H1168       H  0.34275231  0.19820527  0.90990318     0.12500
H1169       H  0.28135600  0.15318007  0.80973964     0.15400
H1170       H  0.35701526  0.12927913  0.78120255     0.15100
C1171       C  0.64879347  0.29285547  0.08296724    -0.17800
C1172       C  0.63687843  0.27056388  0.08298405    -0.19900
C1173       C  0.60898754  0.26834747  0.08229792     0.20700
C1174       C  0.59282348  0.28874977  0.08221414    -0.02800
C1175       C  0.60491652  0.31135522  0.08228014    -0.05900
C1176       C  0.63304335  0.31335804  0.08224512     0.21000
C1177       C  0.58896707  0.33188066  0.08124351     0.19200
C1178       C  0.56098917  0.32958423  0.08111996    -0.17400
C1179       C  0.54898018  0.30716669  0.08158465    -0.19600
C1180       C  0.56468567  0.28654191  0.08184400     0.20700
C1181       C  0.55293878  0.26379728  0.08234777    -0.32600
C1182       C  0.56917095  0.24341870  0.08283047     0.01400
C1183       C  0.59708862  0.24600678  0.08232311    -0.24000
C1184       C  0.64498318  0.33559543  0.07910828    -0.28500
C1185       C  0.62922425  0.35561752  0.07410882     0.07000
C1186       C  0.60130511  0.35406830  0.07803624    -0.27200
H1187       H  0.67038792  0.29404080  0.08284207     0.11700
H1188       H  0.64952768  0.25500734  0.08328860     0.12900
H1189       H  0.54836716  0.34513438  0.08016519     0.11900
H1190       H  0.52738824  0.30596843  0.08139971     0.11200
H1191       H  0.53143814  0.26198673  0.08364568     0.16600
H1192       H  0.60965812  0.23039363  0.08340286     0.12500
H1193       H  0.66638089  0.33655158  0.07610006     0.15400
H1194       H  0.58896110  0.36939601  0.07410319     0.15100
C1195       C  0.56964913  0.15736222  0.23126808    -0.17800
C1196       C  0.55739936  0.16285528  0.20842071    -0.19900
C1197       C  0.57282705  0.16935615  0.18762388     0.20700
C1198       C  0.60088464  0.17094479  0.19012348    -0.02800
C1199       C  0.61328265  0.16510020  0.21311707    -0.05900
C1200       C  0.59758159  0.15804289  0.23368361     0.21000
C1201       C  0.64143178  0.16504931  0.21508835     0.19200
C1202       C  0.65681851  0.17223304  0.19449848    -0.17400
C1203       C  0.64451493  0.17874249  0.17197384    -0.19600
C1204       C  0.61662287  0.17772907  0.16946006     0.20700
C1205       C  0.60419750  0.18322976  0.14662663    -0.32600
C1206       C  0.57633884  0.18133565  0.14391924     0.01400
C1207       C  0.56074648  0.17425414  0.16439577    -0.24000
C1208       C  0.61013354  0.14979353  0.25553023    -0.28500
C1209       C  0.63810239  0.14673927  0.25638618     0.07000
C1210       C  0.65367835  0.15590383  0.23677207    -0.27200
H1211       H  0.55729966  0.15182814  0.24684030     0.11700
H1212       H  0.53585918  0.16170060  0.20692684     0.12900
H1213       H  0.67842361  0.17232726  0.19563648     0.11900
H1214       H  0.65687819  0.18399917  0.15630124     0.11200
H1215       H  0.61617334  0.18897276  0.13085263     0.16600
H1216       H  0.53922046  0.17331930  0.16243170     0.12500
H1217       H  0.59803065  0.14233693  0.27038570     0.15400
H1218       H  0.67512748  0.15321904  0.23706188     0.15100
C1219       C  0.56443275  0.32484405  0.97730856    -0.17800
C1220       C  0.55272182  0.30249934  0.97519391    -0.19900
C1221       C  0.56870851  0.28221100  0.97311271     0.20700
C1222       C  0.59683078  0.28456930  0.97276649    -0.02800
C1223       C  0.60863940  0.30710051  0.97501796    -0.05900
C1224       C  0.59234588  0.32729373  0.97750885     0.21000
C1225       C  0.63673212  0.30929704  0.97589921     0.19200
C1226       C  0.65275306  0.28910812  0.97300820    -0.17400
C1227       C  0.64106950  0.26686527  0.97006062    -0.19600
C1228       C  0.61318320  0.26440107  0.97038171     0.20700
C1229       C  0.60135643  0.24217628  0.96778004    -0.32600
C1230       C  0.57342061  0.23973512  0.96757677     0.01400
C1231       C  0.55713267  0.25970018  0.97069129    -0.24000
C1232       C  0.60419170  0.34926428  0.98232298    -0.28500
C1233       C  0.63185174  0.35085302  0.98706570     0.07000
C1234       C  0.64818707  0.33123197  0.98182350    -0.27200
H1235       H  0.55163626  0.34017335  0.97942779     0.11700
H1236       H  0.53114552  0.30107843  0.97533812     0.12900
H1237       H  0.67432850  0.29045504  0.97353730     0.11900
H1238       H  0.65386111  0.25152394  0.96796542     0.11200
H1239       H  0.61386570  0.22676233  0.96474171     0.16600
H1240       H  0.53560782  0.25787522  0.96967163     0.12500
H1241       H  0.59152942  0.36431626  0.98653654     0.15400
H1242       H  0.66943314  0.33222244  0.98561896     0.15100
C1243       C  0.65584029  0.17896747  0.84879758    -0.17800
C1244       C  0.64342214  0.18529547  0.87126577    -0.19900
C1245       C  0.61575956  0.18246047  0.87426752     0.20700
C1246       C  0.60019034  0.17438034  0.85406472    -0.02800
C1247       C  0.61264320  0.16867427  0.83111856    -0.05900
C1248       C  0.64073193  0.17010438  0.82880533     0.21000
C1249       C  0.59721273  0.15996277  0.81111602     0.19200
C1250       C  0.56940838  0.15793995  0.81384738    -0.17400
C1251       C  0.55711771  0.16331520  0.83668604    -0.19600
C1252       C  0.57238211  0.17103483  0.85711626     0.20700
C1253       C  0.56047819  0.17517204  0.88060011    -0.32600
C1254       C  0.57600633  0.18322343  0.90072957     0.01400
C1255       C  0.60350179  0.18713407  0.89727995    -0.24000
C1256       C  0.65334574  0.16053409  0.80758821    -0.28500
C1257       C  0.63814499  0.14956115  0.78884833     0.07000
C1258       C  0.61007793  0.15125575  0.78971203    -0.27200
H1259       H  0.67736760  0.18030303  0.84734282     0.11700
H1260       H  0.65559460  0.19165339  0.88660186     0.12900
H1261       H  0.55728653  0.15125431  0.79863523     0.11900
H1262       H  0.53574699  0.16091481  0.83853374     0.11200
H1263       H  0.53917774  0.17269523  0.88307480     0.16600
H1264       H  0.61545949  0.19357602  0.91275482     0.12500
H1265       H  0.67493103  0.15897319  0.80714660     0.15400
H1266       H  0.59837676  0.14245333  0.77542119     0.15100
C1267       C  0.56914181  0.88112485  0.96878378    -0.17800
C1268       C  0.55602512  0.90296419  0.96699002    -0.19900
C1269       C  0.57066143  0.92406699  0.96608306     0.20700
C1270       C  0.59888859  0.92302009  0.96657376    -0.02800
C1271       C  0.61212351  0.90097428  0.96830847    -0.05900
C1272       C  0.59715290  0.87995368  0.96973985     0.21000
C1273       C  0.64028324  0.90005657  0.96975427     0.19200
C1274       C  0.65498533  0.92109602  0.96844510    -0.17400
C1275       C  0.64192276  0.94287057  0.96619582    -0.19600
C1276       C  0.61392116  0.94401314  0.96552967     0.20700
C1277       C  0.60073080  0.96576077  0.96327690    -0.32600
C1278       C  0.57269358  0.96698031  0.96220396     0.01400
C1279       C  0.55767686  0.94612712  0.96403660    -0.24000
C1280       C  0.61030359  0.85841901  0.97436757    -0.28500
C1281       C  0.63797079  0.85793875  0.97921953     0.07000
C1282       C  0.65306727  0.87841633  0.97469048    -0.27200
H1283       H  0.55732746  0.86515776  0.97002069     0.11700
H1284       H  0.53439655  0.90335077  0.96650071     0.12900
H1285       H  0.67658673  0.92075353  0.96964425     0.11900
H1286       H  0.65372927  0.95886587  0.96529640     0.11200
H1287       H  0.61232154  0.98181903  0.96125091     0.16600
H1288       H  0.53611149  0.94697555  0.96242823     0.12500
H1289       H  0.59856842  0.84276310  0.97825164     0.15400
H1290       H  0.67429063  0.87824153  0.97878089     0.15100
C1291       C  0.55603680  0.05034874  0.83526370    -0.17800
C1292       C  0.56853807  0.05657906  0.81276648    -0.19900
C1293       C  0.59636732  0.05453184  0.81015688     0.20700
C1294       C  0.61168227  0.04542387  0.83009814    -0.02800
C1295       C  0.59902948  0.03888701  0.85269617    -0.05900
C1296       C  0.57110646  0.04174403  0.85548052     0.21000
C1297       C  0.61444302  0.03009311  0.87272790     0.19200
C1298       C  0.64223132  0.02790703  0.87008565    -0.17400
C1299       C  0.65482296  0.03500217  0.84797495    -0.19600
C1300       C  0.63979621  0.04404202  0.82797120     0.20700
C1301       C  0.65251069  0.05359195  0.80682717    -0.32600
C1302       C  0.63744040  0.06466933  0.78801610     0.01400
C1303       C  0.60935015  0.06334532  0.78886189    -0.24000
C1304       C  0.55884985  0.03597734  0.87841876    -0.28500
C1305       C  0.57415440  0.02675291  0.89819791     0.07000
C1306       C  0.60185417  0.02378104  0.89513736    -0.27200
H1307       H  0.53460855  0.05253458  0.83694777     0.11700
H1308       H  0.55651610  0.06369053  0.79765757     0.12900
H1309       H  0.65431266  0.02118171  0.88534857     0.11900
H1310       H  0.67638735  0.03387729  0.84672070     0.11200
H1311       H  0.67410405  0.05500713  0.80646141     0.16600
H1312       H  0.59774897  0.07236876  0.77459623     0.12500
H1313       H  0.53744387  0.03798016  0.88065462     0.15400
H1314       H  0.61367310  0.01666103  0.91041172     0.15100
C1315       C  0.64762468  0.03307826  0.16978421    -0.17800
C1316       C  0.65937894  0.03943334  0.19252827    -0.19900
C1317       C  0.64341491  0.04533151  0.21317626     0.20700
C1318       C  0.61530888  0.04443739  0.21101256    -0.02800
C1319       C  0.60345654  0.03877068  0.18785314    -0.05900
C1320       C  0.61973197  0.03296972  0.16720293     0.21000
C1321       C  0.57536825  0.03945696  0.18520662     0.19200
C1322       C  0.55941419  0.04505933  0.20594699    -0.17400
C1323       C  0.57115596  0.05035803  0.22900612    -0.19600
C1324       C  0.59905000  0.05044093  0.23160684     0.20700
C1325       C  0.61095248  0.05848867  0.25370843    -0.32600
C1326       C  0.63869064  0.06218257  0.25478381     0.01400
C1327       C  0.65495710  0.05406402  0.23520216    -0.24000
C1328       C  0.60780401  0.02719376  0.14433148    -0.28500
C1329       C  0.57992083  0.02793116  0.14161124     0.07000
C1330       C  0.56377444  0.03441244  0.16190496    -0.27200
H1331       H  0.66035977  0.02871423  0.15405646     0.11700
H1332       H  0.68095904  0.04015904  0.19383415     0.12900
H1333       H  0.53785264  0.04555555  0.20427674     0.11900
H1334       H  0.55843018  0.05511687  0.24461167     0.11200
H1335       H  0.59845413  0.06519052  0.26869458     0.16600
H1336       H  0.67628439  0.05732845  0.23586674     0.12500
H1337       H  0.62016710  0.02210081  0.12855908     0.15400
H1338       H  0.54223687  0.03462270  0.15977040     0.15100
C1339       C  0.64518566  0.94345424  0.07062227    -0.17800
C1340       C  0.65851043  0.92173384  0.06996016    -0.19900
C1341       C  0.64429282  0.90056634  0.07272800     0.20700
C1342       C  0.61648142  0.90132588  0.07703374    -0.02800
C1343       C  0.60298532  0.92328065  0.07760840    -0.05900
C1344       C  0.61742364  0.94437547  0.07406962     0.21000
C1345       C  0.57506095  0.92411296  0.08141571     0.19200
C1346       C  0.56103410  0.90292687  0.08501150    -0.17400
C1347       C  0.57433352  0.88112757  0.08386911    -0.19600
C1348       C  0.60196770  0.88011891  0.07943264     0.20700
C1349       C  0.61487279  0.85843112  0.07493303    -0.32600
C1350       C  0.64177344  0.85793193  0.06719078     0.01400
C1351       C  0.65694368  0.87873240  0.06884495    -0.24000
C1352       C  0.60398165  0.96608429  0.07465902    -0.28500
C1353       C  0.57633504  0.96716093  0.07898734     0.07000
C1354       C  0.56186791  0.94612926  0.08215111    -0.27200
H1355       H  0.65656509  0.95954199  0.06812641     0.11700
H1356       H  0.67984036  0.92146961  0.06654797     0.12900
H1357       H  0.53967537  0.90318749  0.08824736     0.11900
H1358       H  0.56287347  0.86502197  0.08582501     0.11200
H1359       H  0.60305974  0.84246413  0.07346301     0.16600
H1360       H  0.67758437  0.87844683  0.06267047     0.12500
H1361       H  0.61526817  0.98236415  0.07317922     0.15400
H1362       H  0.54075010  0.94699421  0.08654557     0.15100
C1363       C  0.03330148  0.52573481  0.23722064    -0.17800
C1364       C  0.03304087  0.51434511  0.26054403    -0.19900
C1365       C  0.03153295  0.48959660  0.26210716     0.20700
C1366       C  0.03008601  0.47622590  0.23990814    -0.02800
C1367       C  0.03013005  0.48773212  0.21636801    -0.05900
C1368       C  0.03201020  0.51262083  0.21496284     0.21000
C1369       C  0.02851981  0.47428815  0.19424070     0.19200
C1370       C  0.02631330  0.44961158  0.19576057    -0.17400
C1371       C  0.02585477  0.43827936  0.21903436    -0.19600
C1372       C  0.02775849  0.45139389  0.24122886     0.20700
C1373       C  0.02508795  0.44029923  0.26464149    -0.32600
C1374       C  0.02312943  0.45381446  0.28664201     0.01400
C1375       C  0.02915116  0.47815686  0.28540722    -0.24000
C1376       C  0.03370921  0.52378404  0.19137172    -0.28500
C1377       C  0.03373150  0.51024511  0.16932551     0.07000
C1378       C  0.03027694  0.48562882  0.17096395    -0.27200
H1379       H  0.03461462  0.54482673  0.23659999     0.11700
H1380       H  0.03369527  0.52494308  0.27740068     0.12900
H1381       H  0.02497550  0.43904814  0.17891394     0.11900
H1382       H  0.02369591  0.41924762  0.21967549     0.11200
H1383       H  0.02016362  0.42165839  0.26534216     0.16600
H1384       H  0.02725718  0.48873679  0.30222051     0.12500
H1385       H  0.03696299  0.54267894  0.19023138     0.15400
H1386       H  0.03069384  0.47512210  0.15400263     0.15100
C1387       C  0.17035983  0.51701063  0.08097420    -0.17800
C1388       C  0.19339691  0.50486776  0.07344291    -0.19900
C1389       C  0.19441104  0.48008206  0.07431690     0.20700
C1390       C  0.17240328  0.46742348  0.08377326    -0.02800
C1391       C  0.14929369  0.47971863  0.09177195    -0.05900
C1392       C  0.14803065  0.50461582  0.08983796     0.21000
C1393       C  0.12715976  0.46704158  0.10095324     0.19200
C1394       C  0.12831538  0.44227095  0.10212961    -0.17400
C1395       C  0.15086137  0.43007955  0.09347360    -0.19600
C1396       C  0.17288318  0.44244854  0.08392723     0.20700
C1397       C  0.19433579  0.43035131  0.07265476    -0.32600
C1398       C  0.21521849  0.44297112  0.06130767     0.01400
C1399       C  0.21605110  0.46772944  0.06391750    -0.24000
C1400       C  0.12442177  0.51661031  0.09661056    -0.28500
C1401       C  0.10245547  0.50405659  0.10608873     0.07000
C1402       C  0.10412833  0.47932331  0.10846914    -0.27200
H1403       H  0.16988013  0.53609958  0.07953250     0.11700
H1404       H  0.21010761  0.51484463  0.06612467     0.12900
H1405       H  0.11147808  0.43227636  0.10915574     0.11900
H1406       H  0.15083490  0.41094059  0.09375419     0.11200
H1407       H  0.19332463  0.41135768  0.07023981     0.16600
H1408       H  0.23185156  0.47750423  0.05469465     0.12500
H1409       H  0.12333061  0.53568807  0.09509325     0.15400
H1410       H  0.08721385  0.46959342  0.11580144     0.15100
C1411       C  0.19284501  0.50687437  0.96526198    -0.17800
C1412       C  0.16906561  0.51900035  0.96016648    -0.19900
C1413       C  0.14675913  0.50689694  0.95086992     0.20700
C1414       C  0.14878765  0.48241915  0.94587830    -0.02800
C1415       C  0.17255208  0.47006457  0.95165228    -0.05900
C1416       C  0.19454428  0.48235300  0.96164627     0.21000
C1417       C  0.17364203  0.44522236  0.94906879     0.19200
C1418       C  0.15172899  0.43325408  0.93878021    -0.17400
C1419       C  0.12858735  0.44563978  0.93203434    -0.19600
C1420       C  0.12670150  0.47008814  0.93613721     0.20700
C1421       C  0.10290429  0.48231423  0.93124921    -0.32600
C1422       C  0.10042248  0.50649909  0.93695190     0.01400
C1423       C  0.12238002  0.51871962  0.94680597    -0.24000
C1424       C  0.21678379  0.46965054  0.97021845    -0.28500
C1425       C  0.21618505  0.44480564  0.97121455     0.07000
C1426       C  0.19549127  0.43268011  0.95902247    -0.27200
H1427       H  0.20953938  0.51652233  0.97308019     0.11700
H1428       H  0.16798164  0.53778438  0.96391266     0.12900
H1429       H  0.15221274  0.41423272  0.93657254     0.11900
H1430       H  0.11179037  0.43595283  0.92446495     0.11200
H1431       H  0.08598952  0.47287748  0.92349825     0.16600
H1432       H  0.12064108  0.53744639  0.95073129     0.12500
H1433       H  0.23260209  0.47894949  0.97994648     0.15400
H1434       H  0.19481000  0.41355689  0.96003450     0.15100
C1435       C  0.02941160  0.51645037  0.78740125    -0.17800
C1436       C  0.02946194  0.52817477  0.81055417    -0.19900
C1437       C  0.02790809  0.51537670  0.83305725     0.20700
C1438       C  0.02677579  0.49044604  0.83205797    -0.02800
C1439       C  0.02779614  0.47859681  0.80874831    -0.05900
C1440       C  0.02846657  0.49164847  0.78627066     0.21000
C1441       C  0.02718808  0.45367306  0.80793424     0.19200
C1442       C  0.02581884  0.44081925  0.83034555    -0.17400
C1443       C  0.02444384  0.45251537  0.85333491    -0.19600
C1444       C  0.02482832  0.47728321  0.85437600     0.20700
C1445       C  0.02469329  0.48899824  0.87746059    -0.32600
C1446       C  0.02778253  0.51366269  0.87885839     0.01400
C1447       C  0.02869615  0.52687355  0.85653030    -0.24000
C1448       C  0.02581595  0.47973440  0.76323221    -0.28500
C1449       C  0.02153874  0.45505576  0.76264939     0.07000
C1450       C  0.02548898  0.44206489  0.78478499    -0.27200
H1451       H  0.02983041  0.52681484  0.77035253     0.11700
H1452       H  0.03045304  0.54728869  0.81084273     0.12900
H1453       H  0.02512339  0.42169180  0.83006980     0.11900
H1454       H  0.02320266  0.44215522  0.87035093     0.11200
H1455       H  0.02477491  0.47869497  0.89459331     0.16600
H1456       H  0.03198807  0.54577153  0.85743180     0.12500
H1457       H  0.02264065  0.48992504  0.74629664     0.15400
H1458       H  0.02211225  0.42314010  0.78454089     0.15100
C1459       C  0.81764735  0.42677007  0.96656410    -0.17800
C1460       C  0.83977819  0.44062085  0.96035610    -0.19900
C1461       C  0.83697392  0.46506409  0.95673552     0.20700
C1462       C  0.81152629  0.47562345  0.95885382    -0.02800
C1463       C  0.78907436  0.46154176  0.96465766    -0.05900
C1464       C  0.79226759  0.43707315  0.96898988     0.21000
C1465       C  0.76370477  0.47212640  0.96735143     0.19200
C1466       C  0.76088019  0.49655730  0.96351994    -0.17400
C1467       C  0.78311924  0.51050800  0.95772525    -0.19600
C1468       C  0.80860411  0.50029173  0.95564449     0.20700
C1469       C  0.83118901  0.51421405  0.95029441    -0.32600
C1470       C  0.85645321  0.50363693  0.94777759     0.01400
C1471       C  0.85916665  0.47910791  0.95095412    -0.24000
C1472       C  0.77055958  0.42375127  0.97772517    -0.28500
C1473       C  0.74600653  0.43474170  0.98293316     0.07000
C1474       C  0.74215225  0.45848521  0.97591129    -0.27200
H1475       H  0.82048619  0.40805714  0.96996411     0.11700
H1476       H  0.85919491  0.43226077  0.95878113     0.12900
H1477       H  0.74156009  0.50498818  0.96563022     0.11900
H1478       H  0.78043147  0.52935604  0.95518904     0.11200
H1479       H  0.82903239  0.53306585  0.94728983     0.16600
H1480       H  0.87863729  0.47095235  0.94864595     0.12500
H1481       H  0.77374950  0.40564699  0.98371065     0.15400
H1482       H  0.72343197  0.46712230  0.98052932     0.15100
C1483       C  0.91054680  0.50654693  0.79369810    -0.17800
C1484       C  0.91027148  0.51994916  0.81572402    -0.19900
C1485       C  0.91798795  0.50981453  0.83860598     0.20700
C1486       C  0.92608273  0.48588696  0.83922730    -0.02800
C1487       C  0.92585014  0.47223781  0.81708002    -0.05900
C1488       C  0.91826884  0.48268076  0.79416543     0.21000
C1489       C  0.93394183  0.44833793  0.81774704     0.19200
C1490       C  0.94187082  0.43822305  0.84057274    -0.17400
C1491       C  0.94191784  0.45167391  0.86252128    -0.19600
C1492       C  0.93407100  0.47549086  0.86203820     0.20700
C1493       C  0.93284399  0.48874985  0.88415989    -0.32600
C1494       C  0.92334763  0.51213225  0.88392640     0.01400
C1495       C  0.91658120  0.52279741  0.86103410    -0.24000
C1496       C  0.92060795  0.46964561  0.77188497    -0.28500
C1497       C  0.93178235  0.44677179  0.77214410     0.07000
C1498       C  0.93603485  0.43554528  0.79532036    -0.27200
H1499       H  0.90494843  0.51492946  0.77622643     0.11700
H1500       H  0.90401382  0.53826712  0.81485328     0.12900
H1501       H  0.94839850  0.41997489  0.84139520     0.11900
H1502       H  0.94803493  0.44341809  0.87991089     0.11200
H1503       H  0.93726733  0.48031445  0.90192611     0.16600
H1504       H  0.90841338  0.54055509  0.86094182     0.12500
H1505       H  0.91777105  0.47851274  0.75408271     0.15400
H1506       H  0.94508410  0.41811265  0.79563718     0.15100
C1507       C  0.93472436  0.44195312  0.21732177    -0.17800
C1508       C  0.93543738  0.45456928  0.19485109    -0.19900
C1509       C  0.93127026  0.47907712  0.19466488     0.20700
C1510       C  0.92621821  0.49105700  0.21729529    -0.02800
C1511       C  0.92552356  0.47828034  0.24004179    -0.05900
C1512       C  0.92996892  0.45363864  0.24002354     0.21000
C1513       C  0.92132702  0.49023222  0.26284860     0.19200
C1514       C  0.91689744  0.51476765  0.26255981    -0.17400
C1515       C  0.91688255  0.52735616  0.23992196    -0.19600
C1516       C  0.92166150  0.51571318  0.21715308     0.20700
C1517       C  0.92075341  0.52796955  0.19415957    -0.32600
C1518       C  0.92455349  0.51575951  0.17153368     0.01400
C1519       C  0.93079690  0.49157070  0.17206897    -0.24000
C1520       C  0.93191538  0.44141124  0.26280468    -0.28500
C1521       C  0.93176074  0.45376990  0.28559775     0.07000
C1522       C  0.92395417  0.47776858  0.28555736    -0.27200
H1523       H  0.93842470  0.42308991  0.21699374     0.11700
H1524       H  0.93918715  0.44512700  0.17757489     0.12900
H1525       H  0.91377477  0.52428735  0.27989352     0.11900
H1526       H  0.91326202  0.54623206  0.24024392     0.11200
H1527       H  0.91517750  0.54648408  0.19373304     0.16600
H1528       H  0.93305091  0.48206941  0.15456891     0.12500
H1529       H  0.93823984  0.42306491  0.26266834     0.15400
H1530       H  0.92414073  0.48748086  0.30303092     0.15100
C1531       C  0.76676139  0.50574157  0.07352377    -0.17800
C1532       C  0.79015442  0.51815672  0.07926538    -0.19900
C1533       C  0.81196789  0.50654965  0.09033577     0.20700
C1534       C  0.80995425  0.48218961  0.09594266    -0.02800
C1535       C  0.78643849  0.46958538  0.08986022    -0.05900
C1536       C  0.76480958  0.48141893  0.07850941     0.21000
C1537       C  0.78505175  0.44495972  0.09410674     0.19200
C1538       C  0.80672847  0.43341736  0.10549852    -0.17400
C1539       C  0.82969962  0.44600023  0.11216299    -0.19600
C1540       C  0.83160995  0.47030279  0.10721225     0.20700
C1541       C  0.85476611  0.48291361  0.11340675    -0.32600
C1542       C  0.85692873  0.50718720  0.10802605     0.01400
C1543       C  0.83564637  0.51884261  0.09606029    -0.24000
C1544       C  0.74250754  0.46841331  0.07052386    -0.28500
C1545       C  0.74235094  0.44349398  0.07194138     0.07000
C1546       C  0.76300269  0.43205983  0.08510136    -0.27200
H1547       H  0.75041157  0.51506724  0.06458840     0.11700
H1548       H  0.79123514  0.53682702  0.07489991     0.12900
H1549       H  0.80609874  0.41455512  0.10889073     0.11900
H1550       H  0.84618067  0.43662289  0.12082771     0.11200
H1551       H  0.87123078  0.47381846  0.12247407     0.16600
H1552       H  0.83716670  0.53757218  0.09206105     0.12500
H1553       H  0.72703393  0.47726637  0.05980359     0.15400
H1554       H  0.76340986  0.41291843  0.08574838     0.15100
C1555       C  0.04351123  0.69681055  0.26239382    -0.17800
C1556       C  0.04399541  0.68307497  0.24054560    -0.19900
C1557       C  0.03857132  0.69330900  0.21710903     0.20700
C1558       C  0.03306445  0.71777959  0.21578347    -0.02800
C1559       C  0.03335720  0.73176688  0.23774698    -0.05900
C1560       C  0.03804553  0.72114821  0.26122962     0.21000
C1561       C  0.02784528  0.75620835  0.23630948     0.19200
C1562       C  0.02271973  0.76654533  0.21291451    -0.17400
C1563       C  0.02236667  0.75272476  0.19122921    -0.19600
C1564       C  0.02728779  0.72832719  0.19249313     0.20700
C1565       C  0.02763438  0.71453794  0.17069388    -0.32600
C1566       C  0.03458040  0.69044954  0.17150162     0.01400
C1567       C  0.03958043  0.67980497  0.19488675    -0.24000
C1568       C  0.03475494  0.73458915  0.28319101    -0.28500
C1569       C  0.02551514  0.75812467  0.28187139     0.07000
C1570       C  0.02507671  0.76943050  0.25841054    -0.27200
H1571       H  0.04700518  0.68830449  0.28027312     0.11700
H1572       H  0.04834657  0.66436969  0.24202360     0.12900
H1573       H  0.01830240  0.78524380  0.21145256     0.11900
H1574       H  0.01815590  0.76113171  0.17343291     0.11200
H1575       H  0.02475751  0.72301185  0.15267283     0.16600
H1576       H  0.04597813  0.66150807  0.19559788     0.12500
H1577       H  0.03493239  0.72571627  0.30118199     0.15400
H1578       H  0.01777207  0.78745895  0.25722880     0.15100
C1579       C  0.19619385  0.69904138  0.08166957    -0.17800
C1580       C  0.17331525  0.68629609  0.08823905    -0.19900
C1581       C  0.15014623  0.69809029  0.09616062     0.20700
C1582       C  0.15037979  0.72299976  0.09825428    -0.02800
C1583       C  0.17342096  0.73589134  0.09141004    -0.05900
C1584       C  0.19627151  0.72383188  0.08273810     0.21000
C1585       C  0.17299575  0.76086286  0.09173339     0.19200
C1586       C  0.15006412  0.77264005  0.10032381    -0.17400
C1587       C  0.12747985  0.75986241  0.10771133    -0.19600
C1588       C  0.12728782  0.73508728  0.10631175     0.20700
C1589       C  0.10430496  0.72220256  0.11247755    -0.32600
C1590       C  0.10375995  0.69745035  0.10996275     0.01400
C1591       C  0.12669200  0.68547382  0.10174545    -0.24000
C1592       C  0.21781435  0.73676618  0.07308624    -0.28500
C1593       C  0.21605121  0.76148085  0.07033513     0.07000
C1594       C  0.19444656  0.77353405  0.08128868    -0.27200
H1595       H  0.21354459  0.68952398  0.07490552     0.11700
H1596       H  0.17358948  0.66721566  0.08667240     0.12900
H1597       H  0.14932919  0.79176810  0.10069045     0.11900
H1598       H  0.10989364  0.76940146  0.11389139     0.11200
H1599       H  0.08662062  0.73144375  0.11898347     0.16600
H1600       H  0.12642238  0.66637604  0.10026923     0.12500
H1601       H  0.23418858  0.72741857  0.06418933     0.15400
H1602       H  0.19276915  0.79249600  0.07882615     0.15100
C1603       C  0.92211541  0.68066792  0.23632815    -0.17800
C1604       C  0.92227592  0.69263463  0.25926944    -0.19900
C1605       C  0.92440020  0.71736476  0.26004838     0.20700
C1606       C  0.92603022  0.73017039  0.23744734    -0.02800
C1607       C  0.92664078  0.71805898  0.21434673    -0.05900
C1608       C  0.92454547  0.69316663  0.21375026     0.21000
C1609       C  0.92924762  0.73088452  0.19185380     0.19200
C1610       C  0.93097116  0.75561385  0.19255532    -0.17400
C1611       C  0.93031545  0.76759155  0.21541127    -0.19600
C1612       C  0.92809522  0.75503441  0.23796321     0.20700
C1613       C  0.93033045  0.76672627  0.26100362    -0.32600
C1614       C  0.93286917  0.75372858  0.28331376     0.01400
C1615       C  0.92729603  0.72932656  0.28294149    -0.24000
C1616       C  0.92384489  0.68137346  0.19057308    -0.28500
C1617       C  0.92530175  0.69424916  0.16815966     0.07000
C1618       C  0.92888502  0.71885736  0.16898253    -0.27200
H1619       H  0.92033588  0.66159711  0.23626039     0.11700
H1620       H  0.92112275  0.68249982  0.27643995     0.12900
H1621       H  0.93281432  0.76570623  0.17540517     0.11900
H1622       H  0.93214038  0.78666075  0.21547675     0.11200
H1623       H  0.93491456  0.78544937  0.26116095     0.16600
H1624       H  0.92956924  0.71919016  0.30004111     0.12500
H1625       H  0.92022510  0.66250871  0.18992112     0.15400
H1626       H  0.92931465  0.72882650  0.15163444     0.15100
C1627       C  0.81060588  0.77338260  0.08985904    -0.17800
C1628       C  0.83343211  0.76092836  0.09730233    -0.19900
C1629       C  0.83320984  0.73615826  0.09851181     0.20700
C1630       C  0.80958651  0.72378613  0.09276441    -0.02800
C1631       C  0.78638660  0.73640733  0.08560566    -0.05900
C1632       C  0.78708057  0.76130250  0.08369208     0.21000
C1633       C  0.76297268  0.72405848  0.07908697     0.19200
C1634       C  0.76266341  0.69928449  0.08066730    -0.17400
C1635       C  0.78562892  0.68678147  0.08783226    -0.19600
C1636       C  0.80935919  0.69881061  0.09350352     0.20700
C1637       C  0.83289164  0.68638564  0.09972871    -0.32600
C1638       C  0.85637653  0.69872795  0.10563167     0.01400
C1639       C  0.85627659  0.72356255  0.10518763    -0.24000
C1640       C  0.76503436  0.77350478  0.07373479    -0.28500
C1641       C  0.74264890  0.76108649  0.06503197     0.07000
C1642       C  0.74108395  0.73654374  0.06919569    -0.27200
H1643       H  0.81154255  0.79245483  0.08838230     0.11700
H1644       H  0.85144249  0.77066622  0.10166475     0.12900
H1645       H  0.74484928  0.68952190  0.07570238     0.11900
H1646       H  0.78495998  0.66766202  0.08849079     0.11200
H1647       H  0.83281041  0.66725071  0.10056854     0.16600
H1648       H  0.87434722  0.73308332  0.10996040     0.12500
H1649       H  0.76657487  0.79228041  0.06995120     0.15400
H1650       H  0.72411658  0.72687266  0.06189448     0.15100
C1651       C  0.94350929  0.76414146  0.83524980    -0.17800
C1652       C  0.94565650  0.75120441  0.85748122    -0.19900
C1653       C  0.93723451  0.72759540  0.85847035     0.20700
C1654       C  0.92650992  0.71690588  0.83686160    -0.02800
C1655       C  0.92415730  0.73003731  0.81445090    -0.05900
C1656       C  0.93285004  0.75371266  0.81362674     0.21000
C1657       C  0.91394015  0.71925377  0.79266573     0.19200
C1658       C  0.90534162  0.69568103  0.79374790    -0.17400
C1659       C  0.90714867  0.68281419  0.81609455    -0.19600
C1660       C  0.91782896  0.69320012  0.83772553     0.20700
C1661       C  0.91867312  0.68075284  0.86050799    -0.32600
C1662       C  0.92789035  0.69180631  0.88236775     0.01400
C1663       C  0.93802715  0.71489930  0.88100796    -0.24000
C1664       C  0.93288115  0.76587826  0.79072524    -0.28500
C1665       C  0.92669505  0.75398776  0.76833185     0.07000
C1666       C  0.91473625  0.73152574  0.76976545    -0.27200
H1667       H  0.95059537  0.78220803  0.83486378     0.11700
H1668       H  0.95387163  0.75968754  0.87392937     0.12900
H1669       H  0.89756115  0.68706966  0.77719455     0.11900
H1670       H  0.90024723  0.66469177  0.81643629     0.11200
H1671       H  0.90994485  0.66327674  0.86173604     0.16600
H1672       H  0.94424918  0.72370523  0.89805439     0.12500
H1673       H  0.94235680  0.78307175  0.78971974     0.15400
H1674       H  0.91016049  0.72220611  0.75258426     0.15100
C1675       C  0.76394800  0.70351885  0.95903127    -0.17800
C1676       C  0.78757090  0.69103458  0.95438182    -0.19900
C1677       C  0.81186088  0.70304558  0.95163423     0.20700
C1678       C  0.81217592  0.72799399  0.95259704    -0.02800
C1679       C  0.78835943  0.74058961  0.95753592    -0.05900
C1680       C  0.76424708  0.72822049  0.96122698     0.21000
C1681       C  0.78899910  0.76538831  0.96033254     0.19200
C1682       C  0.81311306  0.77749077  0.95657101    -0.17400
C1683       C  0.83656897  0.76506953  0.95091189    -0.19600
C1684       C  0.83641247  0.74029887  0.94941634     0.20700
C1685       C  0.86004673  0.72756766  0.94499804    -0.32600
C1686       C  0.85990217  0.70271279  0.94462454     0.01400
C1687       C  0.83582302  0.69055094  0.94801821    -0.24000
C1688       C  0.74149655  0.74047477  0.96940917    -0.28500
C1689       C  0.74305141  0.76460718  0.97544164     0.07000
C1690       C  0.76617638  0.77729992  0.96906872    -0.27200
H1691       H  0.74559897  0.69376521  0.96183862     0.11700
H1692       H  0.78691988  0.67192848  0.95340149     0.12900
H1693       H  0.81397750  0.79651506  0.95863033     0.11900
H1694       H  0.85498770  0.77479546  0.94839730     0.11200
H1695       H  0.87862329  0.73693379  0.94187235     0.16600
H1696       H  0.83565018  0.67142422  0.94696545     0.12500
H1697       H  0.72383742  0.73063116  0.97476613     0.15400
H1698       H  0.76756861  0.79580673  0.97412865     0.15100
C1699       C  0.17022520  0.68422617  0.96339217    -0.17800
C1700       C  0.19306783  0.69695430  0.97012339    -0.19900
C1701       C  0.19314668  0.72175431  0.96904450     0.20700
C1702       C  0.17031475  0.73384086  0.96033165    -0.02800
C1703       C  0.14735225  0.72099529  0.95335446    -0.05900
C1704       C  0.14712196  0.69607232  0.95531951     0.21000
C1705       C  0.12435583  0.73316165  0.94514718     0.19200
C1706       C  0.12445536  0.75791634  0.94389582    -0.17400
C1707       C  0.14696396  0.77064431  0.95138596    -0.19600
C1708       C  0.16988562  0.75881408  0.95989714     0.20700
C1709       C  0.19148228  0.77149245  0.96987428    -0.32600
C1710       C  0.21329048  0.75949523  0.98046446     0.01400
C1711       C  0.21476998  0.73470946  0.97846148    -0.24000
C1712       C  0.12372935  0.68354276  0.94937869    -0.28500
C1713       C  0.10099310  0.69568893  0.94088509     0.07000
C1714       C  0.10151963  0.72039851  0.93862683    -0.27200
H1715       H  0.17050006  0.66513441  0.96486738     0.11700
H1716       H  0.21042260  0.68742114  0.97688963     0.12900
H1717       H  0.10689069  0.76746658  0.93764557     0.11900
H1718       H  0.14623990  0.78977208  0.95101595     0.11200
H1719       H  0.18998165  0.79049821  0.97201340     0.16600
H1720       H  0.23126401  0.72543548  0.98727886     0.12500
H1721       H  0.12335298  0.66443750  0.95079961     0.15400
H1722       H  0.08389185  0.72971792  0.93207085     0.15100
C1723       C  0.02562617  0.68444069  0.78851437    -0.17800
C1724       C  0.02747535  0.67328731  0.81194493    -0.19900
C1725       C  0.02774143  0.68663431  0.83408825     0.20700
C1726       C  0.02669123  0.71155766  0.83240320    -0.02800
C1727       C  0.02537020  0.72283205  0.80871587    -0.05900
C1728       C  0.02435803  0.70921337  0.78667523     0.21000
C1729       C  0.02405924  0.74772016  0.80717057     0.19200
C1730       C  0.02485296  0.76111726  0.82923714    -0.17400
C1731       C  0.02629555  0.75000826  0.85260594    -0.19600
C1732       C  0.02695160  0.72527076  0.85438910     0.20700
C1733       C  0.02880046  0.71409399  0.87776534    -0.32600
C1734       C  0.03095625  0.68935015  0.87971089     0.01400
C1735       C  0.02991969  0.67563621  0.85778758    -0.24000
C1736       C  0.02000245  0.72051091  0.76345858    -0.28500
C1737       C  0.01551254  0.74519224  0.76214886     0.07000
C1738       C  0.01981324  0.75872170  0.78385791    -0.27200
H1739       H  0.02478605  0.67363852  0.77181432     0.11700
H1740       H  0.02844462  0.65417823  0.81274461     0.12900
H1741       H  0.02380099  0.78022239  0.82845719     0.11900
H1742       H  0.02674204  0.76079776  0.86933366     0.11200
H1743       H  0.03032549  0.72477144  0.89455138     0.16600
H1744       H  0.03250768  0.65665583  0.85906681     0.12500
H1745       H  0.01617589  0.70983170  0.74702030     0.15400
H1746       H  0.01588614  0.77756559  0.78326954     0.15100
loop_ 
_geom_bond_atom_site_label_1 
_geom_bond_atom_site_label_2 
_geom_bond_distance 
_geom_bond_site_symmetry_2 
_ccdc_geom_bond_type 
C1            N2   1.347       .  A
C1            N6   1.355       .  A
C1         C1713   1.470       .  S
N2            C3   1.351       .  A
C3            N4   1.371       .  A
C3         C1734   1.482       .  S
N4            C5   1.375       .  A
C5            N6   1.364       .  A
C5           C51   1.488       .  S
C7            N8   1.359       .  A
C7           N12   1.345       .  A
C7         C1686   1.472       .  S
N8            C9   1.368       .  A
C9           N10   1.369       .  A
C9           C80   1.487       .  S
N10          C11   1.367       .  A
C11          N12   1.351       .  A
C11        C1662   1.467       .  S
C13          N14   1.367       .  A
C13          N18   1.352       .  A
C13        C1617   1.469       .  S
N14          C15   1.368       .  A
C15          N16   1.370       .  A
C15          C71   1.487       .  S
N16          C17   1.359       .  A
C17          N18   1.347       .  A
C17        C1638   1.478       .  S
C19          N20   1.372       .  A
C19          N24   1.351       .  A
C19        C1566   1.480       .  S
N20          C21   1.375       .  A
C21          N22   1.369       .  A
C21          C60   1.499       .  S
N22          C23   1.361       .  A
C23          N24   1.347       .  A
C23        C1590   1.477       .  S
C25          N26   1.366       .  A
C25          N30   1.353       .  A
C25        C1518   1.471       .  S
N26          C27   1.369       .  A
C27          N28   1.368       .  A
C27          C77   1.482       .  S
N28          C29   1.357       .  A
C29          N30   1.349       .  A
C29        C1542   1.481       .  S
C31          N32   1.359       .  A
C31          N36   1.348       .  A
C31        C1470   1.475       .  S
N32          C33   1.369       .  A
C33          N34   1.369       .  A
C33          C74   1.489       .  S
N34          C35   1.367       .  A
C35          N36   1.352       .  A
C35        C1494   1.471       .  S
C37          N38   1.360       .  A
C37          N42   1.346       .  A
C37        C1422   1.476       .  S
N38          C39   1.368       .  A
C39          N40   1.375       .  A
C39          C57   1.494       .  S
N40          C41   1.370       .  A
C41          N42   1.350       .  A
C41        C1446   1.479       .  S
C43          N44   1.370       .  A
C43          N48   1.354       .  A
C43        C1377   1.479       .  S
N44          C45   1.372       .  A
C45          N46   1.368       .  A
C45          C54   1.493       .  S
N46          C47   1.359       .  A
C47          N48   1.349       .  A
C47        C1401   1.482       .  S
O49         Zr61   2.456   1_556  S
O49          C51   1.293       .  A
O50         Zr87   2.458   1_455  S
O50          C51   1.292       .  A
O52         Zr64   2.444       .  S
O52          C54   1.290       .  A
O53         Zr88   2.481   1_455  S
O53          C54   1.297       .  A
O55         Zr64   2.463   1_556  S
O55          C57   1.293       .  A
O56         Zr87   2.464   1_455  S
O56          C57   1.293       .  A
O58         Zr61   2.469       .  S
O58          C60   1.294       .  A
O59         Zr88   2.470   1_455  S
O59          C60   1.295       .  A
Zr61         O62   2.436       .  S
Zr61         O63   2.434       .  S
Zr61         O67   2.381       .  S
Zr61         O68   2.370       .  S
Zr61         O91   2.371   1_455  S
Zr61         O93   2.374   1_455  S
O62         H105   0.990       .  S
O63         H104   0.990       .  S
O63         H108   0.990       .  S
Zr64         O65   2.436       .  S
Zr64         O66   2.434       .  S
Zr64         O68   2.375       .  S
Zr64         O67   2.369       .  S
Zr64         O92   2.371   1_455  S
Zr64         O94   2.379   1_455  S
O65         H106   0.990       .  S
O65         H109   0.990       .  S
O66          H99   0.990   1_455  S
O67         Zr87   2.407   1_454  S
O68         Zr88   2.406   1_455  S
O68          H95   0.967       .  S
O69         Zr81   2.420       .  S
O69          C71   1.284       .  A
O70         Zr88   2.488       .  S
O70          C71   1.298       .  A
O72         Zr84   2.433   1_556  S
O72          C74   1.287       .  A
O73         Zr87   2.477       .  S
O73          C74   1.296       .  A
O75         Zr84   2.428       .  S
O75          C77   1.286       .  A
O76         Zr88   2.465       .  S
O76          C77   1.294       .  A
O78         Zr81   2.431   1_556  S
O78          C80   1.286       .  A
O79         Zr87   2.474       .  S
O79          C80   1.295       .  A
Zr81         O82   2.436       .  S
Zr81         O83   2.435       .  S
Zr81         O89   2.370       .  S
Zr81         O90   2.369       .  S
Zr81         O93   2.361       .  S
Zr81         O91   2.374       .  S
O82         H102   0.990       .  S
O82         H107   0.990       .  S
O83         H103   0.990       .  S
Zr84         O85   2.435       .  S
Zr84         O86   2.435       .  S
Zr84         O90   2.367       .  S
Zr84         O89   2.364       .  S
Zr84         O94   2.375       .  S
Zr84         O92   2.371       .  S
O85         H101   0.990       .  S
O86         H100   0.990       .  S
O86         H110   0.990       .  S
Zr87         O90   2.393   1_556  S
Zr87         O92   2.397   1_556  S
Zr87         O93   2.398   1_556  S
Zr88         O89   2.401       .  S
Zr88         O91   2.394       .  S
Zr88         O94   2.401       .  S
O89          H97   0.967       .  S
O92          H96   0.966   1_554  S
O93          H98   0.966   1_554  S
C111        N112   1.354       .  A
C111        N116   1.346   1_545  A
C111       C1329   1.466       .  S
N112        C113   1.364       .  A
C113        N114   1.370       .  A
C113        C161   1.482       .  S
N114        C115   1.368   1_545  A
C115        N116   1.351       .  A
C115       C1353   1.470       .  S
C117        N118   1.359       .  A
C117        N122   1.348   1_545  A
C117       C1305   1.477       .  S
N118        C119   1.368       .  A
C119        N120   1.370       .  A
C119        C190   1.487       .  S
N120        C121   1.368   1_545  A
C121        N122   1.352       .  A
C121       C1278   1.474       .  S
C123        N124   1.365       .  A
C123        N128   1.349       .  A
C123       C1230   1.467       .  S
N124        C125   1.368       .  A
C125        N126   1.370       .  A
C125        C181   1.484       .  S
N126        C127   1.360       .  A
C127        N128   1.346       .  A
C127       C1254   1.476       .  S
C129        N130   1.353       .  A
C129        N134   1.373       .  A
C129       C1182   1.482       .  S
N130        C131   1.347       .  A
C131        N132   1.358       .  A
C131       C1206   1.475       .  S
N132        C133   1.368       .  A
C133        N134   1.375       .  A
C133        C170   1.496       .  S
C135        N136   1.363       .  A
C135        N140   1.350       .  A
C135       C1134   1.462       .  S
N136        C137   1.367       .  A
C137        N138   1.366       .  A
C137        C187   1.479       .  S
N138        C139   1.359       .  A
C139        N140   1.346       .  A
C139       C1158   1.471       .  S
C141        N142   1.362       .  A
C141        N146   1.347   1_545  A
C141       C1086   1.476       .  S
N142        C143   1.367       .  A
C143        N144   1.373       .  A
C143        C184   1.493       .  S
N144        C145   1.368   1_545  A
C145        N146   1.351       .  A
C145       C1110   1.475       .  S
C147        N148   1.360       .  A
C147        N152   1.350   1_545  A
C147       C1038   1.479       .  S
N148        C149   1.367       .  A
C149        N150   1.370       .  A
C149        C167   1.488       .  S
N150        C151   1.368   1_545  A
C151        N152   1.353       .  A
C151       C1062   1.474       .  S
C153        N154   1.352       .  A
C153        N158   1.365       .  A
C153       C1017   1.469       .  S
N154        C155   1.349       .  A
C155        N156   1.362       .  A
C155        C993   1.477       .  S
N156        C157   1.370       .  A
C157        N158   1.367       .  A
C157        C164   1.489       .  S
O159       Zr171   2.432       .  S
O159        C161   1.287       .  A
O160       Zr197   2.464       .  S
O160        C161   1.293       .  A
O162       Zr174   2.440       .  S
O162        C164   1.287       .  A
O163       Zr198   2.478       .  S
O163        C164   1.297       .  A
O165       Zr174   2.449       .  S
O165        C167   1.290       .  A
O166       Zr197   2.463       .  S
O166        C167   1.293       .  A
O168       Zr171   2.453       .  S
O168        C170   1.291       .  A
O169       Zr198   2.472       .  S
O169        C170   1.294       .  A
Zr171       O172   2.435       .  S
Zr171       O173   2.434       .  S
Zr171       O177   2.374       .  S
Zr171       O178   2.362       .  S
Zr171       O201   2.369       .  S
Zr171       O203   2.380       .  S
O172        H215   0.990       .  S
O173        H214   0.990       .  S
O173        H218   0.990       .  S
Zr174       O175   2.437       .  S
Zr174       O176   2.434       .  S
Zr174       O178   2.375       .  S
Zr174       O177   2.372       .  S
Zr174       O202   2.370       .  S
Zr174       O204   2.377       .  S
O175        H216   0.990       .  S
O175        H219   0.990       .  S
O176        H209   0.990       .  S
O177       Zr197   2.397       .  S
O178       Zr198   2.395       .  S
O178        H205   0.965       .  S
O179       Zr191   2.435       .  S
O179        C181   1.287       .  A
O180       Zr198   2.470   1_556  S
O180        C181   1.295       .  A
O182       Zr194   2.469       .  S
O182        C184   1.294       .  A
O183       Zr197   2.457   1_556  S
O183        C184   1.292       .  A
O185       Zr194   2.453       .  S
O185        C187   1.291       .  A
O186       Zr198   2.450   1_556  S
O186        C187   1.292       .  A
O188       Zr191   2.436       .  S
O188        C190   1.287       .  A
O189       Zr197   2.469   1_556  S
O189        C190   1.294       .  A
Zr191       O192   2.438       .  S
Zr191       O193   2.435       .  S
Zr191       O199   2.360       .  S
Zr191       O200   2.367       .  S
Zr191       O203   2.372   1_556  S
Zr191       O201   2.380   1_556  S
O192        H212   0.990       .  S
O192        H217   0.990       .  S
O193        H213   0.990       .  S
Zr194       O195   2.435       .  S
Zr194       O196   2.437       .  S
Zr194       O200   2.370       .  S
Zr194       O199   2.374       .  S
Zr194       O204   2.382   1_556  S
Zr194       O202   2.372   1_556  S
O195        H211   0.990       .  S
O196        H210   0.990       .  S
O196        H220   0.990       .  S
Zr197       O200   2.393   1_554  S
Zr197       O202   2.399       .  S
Zr197       O203   2.403       .  S
Zr198       O199   2.404   1_554  S
Zr198       O201   2.394       .  S
Zr198       O204   2.403       .  S
O199        H207   0.965       .  S
O202        H206   0.966       .  S
O203        H208   0.966       .  S
C221        N222   1.357       .  A
C221        N226   1.345   1_545  A
C221        C942   1.469       .  S
N222        C223   1.367       .  A
C223        N224   1.377   1_545  A
C223        C277   1.495       .  S
N224        C225   1.373       .  A
C225        N226   1.349       .  A
C225        C969   1.484       .  S
C227        N228   1.357       .  A
C227        N232   1.347   1_545  A
C227        C918   1.478       .  S
N228        C229   1.367       .  A
C229        N230   1.374       .  A
C229        C294   1.494       .  S
N230        C231   1.373   1_545  A
C231        N232   1.351       .  A
C231        C894   1.479       .  S
C233        N234   1.353       .  A
C233        N238   1.365       .  A
C233        C846   1.470       .  S
N234        C235   1.351       .  A
C235        N236   1.357       .  A
C235        C870   1.468       .  S
N236        C237   1.364       .  A
C237        N238   1.368       .  A
C237        C297   1.479       .  S
C239        N240   1.353       .  A
C239        N244   1.371       .  A
C239        C798   1.482       .  S
N240        C241   1.346       .  A
C241        N242   1.359       .  A
C241        C825   1.477       .  S
N242        C243   1.368       .  A
C243        N244   1.375       .  A
C243        C274   1.494       .  S
C245        N246   1.352       .  A
C245        N250   1.370       .  A
C245        C750   1.475       .  S
N246        C247   1.349       .  A
C247        N248   1.356       .  A
C247        C774   1.470       .  S
N248        C249   1.364       .  A
C249        N250   1.372       .  A
C249        C291   1.489       .  S
C251        N252   1.360       .  A
C251        N256   1.348   1_545  A
C251        C702   1.474       .  S
N252        C253   1.368       .  A
C253        N254   1.373       .  A
C253        C300   1.494       .  S
N254        C255   1.370   1_545  A
C255        N256   1.350       .  A
C255        C729   1.476       .  S
C257        N258   1.346   1_545  A
C257        N262   1.362       .  A
C257        C657   1.481       .  S
N258        C259   1.350       .  A
C259        N260   1.365   1_565  A
C259        C678   1.466       .  S
N260        C261   1.368       .  A
C261        N262   1.372       .  A
C261        C271   1.488       .  S
C263        N264   1.354       .  A
C263        N268   1.372       .  A
C263        C609   1.482       .  S
N264        C265   1.348       .  A
C265        N266   1.356       .  A
C265        C630   1.475       .  S
N266        C267   1.366       .  A
C267        N268   1.374       .  A
C267        C280   1.491       .  S
O269       Zr281   2.426       .  S
O269        C271   1.286       .  A
O270       Zr307   2.480   1_455  S
O270        C271   1.297       .  A
O272       Zr284   2.457       .  S
O272        C274   1.292       .  A
O273       Zr308   2.468   1_455  S
O273        C274   1.294       .  A
O275       Zr284   2.459       .  S
O275        C277   1.293       .  A
O276       Zr307   2.467   1_455  S
O276        C277   1.294       .  A
O278       Zr281   2.442       .  S
O278        C280   1.288       .  A
O279       Zr308   2.467   1_455  S
O279        C280   1.293       .  A
Zr281       O282   2.434       .  S
Zr281       O283   2.436       .  S
Zr281       O287   2.373       .  S
Zr281       O288   2.364       .  S
Zr281       O311   2.367   1_455  S
Zr281       O313   2.373   1_455  S
O282        H325   0.990       .  S
O283        H324   0.990       .  S
O283        H328   0.990   1_455  S
Zr284       O285   2.435       .  S
Zr284       O286   2.435       .  S
Zr284       O288   2.374       .  S
Zr284       O287   2.374       .  S
Zr284       O312   2.372   1_455  S
Zr284       O314   2.375   1_455  S
O285        H326   0.990       .  S
O285        H329   0.990       .  S
O286        H319   0.990       .  S
O287       Zr307   2.400   1_455  S
O288       Zr308   2.396   1_455  S
O288        H315   0.968       .  S
O289       Zr301   2.451       .  S
O289        C291   1.291       .  A
O290       Zr308   2.462       .  S
O290        C291   1.293       .  A
O292       Zr304   2.448       .  S
O292        C294   1.290       .  A
O293       Zr307   2.476       .  S
O293        C294   1.295       .  A
O295       Zr304   2.451       .  S
O295        C297   1.291       .  A
O296       Zr308   2.448       .  S
O296        C297   1.290       .  A
O298       Zr301   2.452       .  S
O298        C300   1.291       .  A
O299       Zr307   2.474       .  S
O299        C300   1.295       .  A
Zr301       O302   2.436       .  S
Zr301       O303   2.434       .  S
Zr301       O309   2.367       .  S
Zr301       O310   2.373       .  S
Zr301       O313   2.372       .  S
Zr301       O311   2.376       .  S
O302        H322   0.990       .  S
O302        H327   0.990       .  S
O303        H323   0.990       .  S
Zr304       O305   2.435       .  S
Zr304       O306   2.435       .  S
Zr304       O310   2.375       .  S
Zr304       O309   2.374       .  S
Zr304       O314   2.375       .  S
Zr304       O312   2.371       .  S
O305        H321   0.990       .  S
O306        H320   0.990       .  S
O306        H330   0.990       .  S
Zr307       O310   2.403       .  S
Zr307       O312   2.404       .  S
Zr307       O313   2.398       .  S
Zr308       O309   2.405       .  S
Zr308       O311   2.392       .  S
Zr308       O314   2.400       .  S
O309        H317   0.967       .  S
O312        H316   0.968       .  S
O313        H318   0.967       .  S
C331       C1374   1.486       .  S
C331        C332   1.394   1_455  A
C331        C336   1.419       .  A
C332        C333   1.391       .  A
C332        H351   1.087       .  S
C333       C1521   1.484       .  S
C333        C334   1.416       .  A
C334        C335   1.425       .  A
C334        C341   1.405       .  A
C335        C336   1.424   1_655  A
C335        C340   1.419       .  A
C336        C337   1.407       .  A
C337        C338   1.406       .  A
C337        H347   1.083       .  S
C338        C339   1.407       .  A
C338        H348   1.083       .  S
C339        C340   1.426   1_455  A
C339        C346   1.422       .  A
C340        C343   1.423       .  A
C341        C342   1.401       .  A
C341        H349   1.083       .  S
C342        C343   1.405       .  A
C342        H350   1.083       .  S
C343        C344   1.413       .  A
C344        C753   1.481       .  S
C344        C345   1.391       .  A
C345        C346   1.394   1_655  A
C345        H352   1.088       .  S
C346        C606   1.490       .  S
C353        C990   1.483       .  S
C353        C354   1.393       .  A
C353        C358   1.412       .  A
C354        C355   1.395       .  A
C354        H373   1.087       .  S
C355       C1041   1.490       .  S
C355        C356   1.420       .  A
C356        C357   1.427       .  A
C356        C363   1.407       .  A
C357        C358   1.426       .  A
C357        C362   1.422       .  A
C358        C359   1.404       .  A
C359        C360   1.396       .  A
C359        H369   1.083       .  S
C360        C361   1.404       .  A
C360        H370   1.083       .  S
C361        C362   1.427       .  A
C361        C368   1.412       .  A
C362        C365   1.428       .  A
C363        C364   1.401       .  A
C363        H371   1.083       .  S
C364        C365   1.405       .  A
C364        H372   1.083       .  S
C365        C366   1.418       .  A
C366        C654   1.487       .  S
C366        C367   1.393       .  A
C367        C368   1.389       .  A
C367        H374   1.087       .  S
C368        C633   1.481       .  S
C375       C1425   1.482       .  S
C375        C376   1.393   1_556  A
C375        C380   1.412       .  A
C376        C377   1.391       .  A
C376        H395   1.087       .  S
C377       C1398   1.485       .  S
C377        C378   1.415       .  A
C378        C379   1.427       .  A
C378        C385   1.405       .  A
C379        C380   1.426   1_554  A
C379        C384   1.419       .  A
C380        C381   1.406       .  A
C381        C382   1.398       .  A
C381        H391   1.083       .  S
C382        C383   1.404       .  A
C382        H392   1.083       .  S
C383        C384   1.424   1_556  A
C383        C390   1.412       .  A
C384        C387   1.425       .  A
C385        C386   1.399       .  A
C385        H393   1.083       .  S
C386        C387   1.404       .  A
C386        H394   1.083       .  S
C387        C388   1.414       .  A
C388       C1014   1.481       .  S
C388        C389   1.391       .  A
C389        C390   1.392   1_554  A
C389        H396   1.088       .  S
C390       C1137   1.479       .  S
C397       C1209   1.489       .  S
C397        C398   1.392       .  A
C397        C402   1.419       .  A
C398        C399   1.391       .  A
C398        H417   1.087       .  S
C399       C1326   1.477       .  S
C399        C400   1.409       .  A
C400        C401   1.423       .  A
C400        C407   1.405       .  A
C401        C402   1.428       .  A
C401        C406   1.419       .  A
C402        C403   1.405       .  A
C403        C404   1.401       .  A
C403        H413   1.083       .  S
C404        C405   1.406       .  A
C404        H414   1.083       .  S
C405        C406   1.425       .  A
C405        C412   1.415       .  A
C406        C409   1.427       .  A
C407        C408   1.394       .  A
C407        H415   1.083       .  S
C408        C409   1.403       .  A
C408        H416   1.083       .  S
C409        C410   1.411       .  A
C410        C705   1.481       .  S
C410        C411   1.391       .  A
C411        C412   1.391       .  A
C411        H418   1.087       .  S
C412        C777   1.481       .  S
C419       C1614   1.480       .  S
C419        C420   1.391       .  A
C419        C424   1.414       .  A
C420        C421   1.391   1_655  A
C420        H439   1.088       .  S
C421       C1569   1.484       .  S
C421        C422   1.416       .  A
C422        C423   1.426   1_455  A
C422        C429   1.405       .  A
C423        C424   1.424       .  A
C423        C428   1.417       .  A
C424        C425   1.406       .  A
C425        C426   1.402       .  A
C425        H435   1.083       .  S
C426        C427   1.405       .  A
C426        H436   1.083       .  S
C427        C428   1.423       .  A
C427        C434   1.414       .  A
C428        C431   1.422   1_655  A
C429        C430   1.401       .  A
C429        H437   1.083       .  S
C430        C431   1.406       .  A
C430        H438   1.083       .  S
C431        C432   1.414   1_455  A
C432        C681   1.480   1_655  S
C432        C433   1.394       .  A
C433        C434   1.393       .  A
C433        H440   1.088       .  S
C434        C726   1.482       .  S
C441       C1089   1.490       .  S
C441        C442   1.393       .  A
C441        C446   1.416       .  A
C442        C443   1.394       .  A
C442        H461   1.086       .  S
C443       C1161   1.485       .  S
C443        C444   1.415       .  A
C444        C445   1.425       .  A
C444        C451   1.407       .  A
C445        C446   1.429       .  A
C445        C450   1.421       .  A
C446        C447   1.404       .  A
C447        C448   1.397       .  A
C447        H457   1.083       .  S
C448        C449   1.405       .  A
C448        H458   1.083       .  S
C449        C450   1.424       .  A
C449        C456   1.412       .  A
C450        C453   1.429       .  A
C451        C452   1.398       .  A
C451        H459   1.082       .  S
C452        C453   1.403       .  A
C452        H460   1.083       .  S
C453        C454   1.417       .  A
C454        C822   1.488       .  S
C454        C455   1.392       .  A
C455        C456   1.393       .  A
C455        H462   1.087       .  S
C456        C945   1.478       .  S
C463       C1449   1.486   1_655  S
C463        C464   1.393       .  A
C463        C468   1.419   1_655  A
C464        C465   1.392       .  A
C464        H483   1.087       .  S
C465       C1497   1.482       .  S
C465        C466   1.414       .  A
C466        C467   1.424       .  A
C466        C473   1.405       .  A
C467        C468   1.424   1_655  A
C467        C472   1.419       .  A
C468        C469   1.406       .  A
C469        C470   1.404       .  A
C469        H479   1.083       .  S
C470        C471   1.406       .  A
C470        H480   1.083       .  S
C471        C472   1.428   1_455  A
C471        C478   1.420       .  A
C472        C475   1.425       .  A
C473        C474   1.400       .  A
C473        H481   1.083       .  S
C474        C475   1.405       .  A
C474        H482   1.083       .  S
C475        C476   1.412       .  A
C476        C849   1.479       .  S
C476        C477   1.389       .  A
C477        C478   1.391   1_655  A
C477        H484   1.088       .  S
C478        C801   1.487       .  S
C485       C1710   1.480   1_554  S
C485        C486   1.391       .  A
C485        C490   1.415       .  A
C486        C487   1.391       .  A
C486        H505   1.087       .  S
C487       C1593   1.485       .  S
C487        C488   1.416       .  A
C488        C489   1.428       .  A
C488        C495   1.405       .  A
C489        C490   1.425       .  A
C489        C494   1.421       .  A
C490        C491   1.407   1_554  A
C491        C492   1.401       .  A
C491        H501   1.083       .  S
C492        C493   1.405       .  A
C492        H502   1.083       .  S
C493        C494   1.426   1_556  A
C493        C500   1.418       .  A
C494        C497   1.424       .  A
C495        C496   1.399       .  A
C495        H503   1.083       .  S
C496        C497   1.405       .  A
C496        H504   1.083       .  S
C497        C498   1.413       .  A
C498       C1065   1.483       .  S
C498        C499   1.391       .  A
C499        C500   1.393   1_554  A
C499        H506   1.087       .  S
C500       C1113   1.487       .  S
C507       C1545   1.489       .  S
C507        C508   1.391       .  A
C507        C512   1.422       .  A
C508        C509   1.388       .  A
C508        H527   1.088       .  S
C509       C1473   1.479   1_554  S
C509        C510   1.411       .  A
C510        C511   1.426       .  A
C510        C517   1.404   1_554  A
C511        C512   1.429       .  A
C511        C516   1.423       .  A
C512        C513   1.406       .  A
C513        C514   1.405       .  A
C513        H523   1.083       .  S
C514        C515   1.407       .  A
C514        H524   1.083       .  S
C515        C516   1.426       .  A
C515        C522   1.421       .  A
C516        C519   1.426       .  A
C517        C518   1.397       .  A
C517        H525   1.083       .  S
C518        C519   1.404   1_556  A
C518        H526   1.083       .  S
C519        C520   1.414       .  A
C520       C1233   1.489   1_554  S
C520        C521   1.392       .  A
C521        C522   1.394       .  A
C521        H528   1.086       .  S
C522       C1185   1.490       .  S
C529       C1665   1.482       .  S
C529        C530   1.392       .  A
C529        C534   1.412       .  A
C530        C531   1.394       .  A
C530        H549   1.087       .  S
C531       C1737   1.495   1_655  S
C531        C532   1.427       .  A
C532        C533   1.427       .  A
C532        C539   1.407   1_655  A
C533        C534   1.424       .  A
C533        C538   1.423       .  A
C534        C535   1.404       .  A
C535        C536   1.399       .  A
C535        H545   1.083       .  S
C536        C537   1.405       .  A
C536        H546   1.083       .  S
C537        C538   1.428       .  A
C537        C544   1.415       .  A
C538        C541   1.429       .  A
C539        C540   1.408       .  A
C539        H547   1.083       .  S
C540        C541   1.408   1_455  A
C540        H548   1.083       .  S
C541        C542   1.425       .  A
C542        C966   1.492   1_655  S
C542        C543   1.391       .  A
C543        C544   1.389       .  A
C543        H550   1.088       .  S
C544        C897   1.484       .  S
C551       C1257   1.483       .  S
C551        C552   1.390       .  A
C551        C556   1.413       .  A
C552        C553   1.392       .  A
C552        H571   1.087       .  S
C553       C1302   1.481       .  S
C553        C554   1.414       .  A
C554        C555   1.425       .  A
C554        C561   1.405       .  A
C555        C556   1.428       .  A
C555        C560   1.421       .  A
C556        C557   1.403       .  A
C557        C558   1.396       .  A
C557        H567   1.083       .  S
C558        C559   1.406       .  A
C558        H568   1.083       .  S
C559        C560   1.424       .  A
C559        C566   1.411       .  A
C560        C563   1.428       .  A
C561        C562   1.399       .  A
C561        H569   1.083       .  S
C562        C563   1.406       .  A
C562        H570   1.082       .  S
C563        C564   1.420       .  A
C564        C921   1.496       .  S
C564        C565   1.397       .  A
C565        C566   1.391       .  A
C565        H572   1.086       .  S
C566        C873   1.481       .  S
C573       C1689   1.480       .  S
C573        C574   1.393   1_556  A
C573        C578   1.413       .  A
C574        C575   1.391       .  A
C574        H593   1.087       .  S
C575       C1641   1.483       .  S
C575        C576   1.415       .  A
C576        C577   1.426       .  A
C576        C583   1.405       .  A
C577        C578   1.424   1_554  A
C577        C582   1.419       .  A
C578        C579   1.406       .  A
C579        C580   1.399       .  A
C579        H589   1.083       .  S
C580        C581   1.404       .  A
C580        H590   1.083       .  S
C581        C582   1.426   1_556  A
C581        C588   1.415   1_556  A
C582        C585   1.425       .  A
C583        C584   1.398       .  A
C583        H591   1.083       .  S
C584        C585   1.404       .  A
C584        H592   1.083       .  S
C585        C586   1.413       .  A
C586       C1350   1.480       .  S
C586        C587   1.391       .  A
C587        C588   1.391       .  A
C587        H594   1.088       .  S
C588       C1281   1.483   1_554  S
C595        C596   1.399       .  A
C595        C600   1.404       .  A
C595        H611   1.084       .  S
C596        C597   1.404       .  A
C596        H612   1.083       .  S
C597        C607   1.408       .  A
C597        C598   1.413       .  A
C598        C604   1.410       .  A
C598        C599   1.418       .  A
C599        C601   1.414       .  A
C599        C600   1.409       .  A
C600        C608   1.402       .  A
C601        C610   1.415       .  A
C601        C602   1.405       .  A
C602        C603   1.404       .  A
C602        H613   1.083       .  S
C603        C604   1.406       .  A
C603        H614   1.083       .  S
C604        C605   1.410       .  A
C605        C606   1.414       .  A
C605        H615   1.084       .  S
C606        C607   1.408       .  A
C607        H616   1.085       .  S
C608        C609   1.408       .  A
C608        H617   1.085       .  S
C609        C610   1.407       .  A
C610        H618   1.084       .  S
C619        C620   1.400       .  A
C619        C624   1.404       .  A
C619        H635   1.084       .  S
C620        C621   1.404       .  A
C620        H636   1.083       .  S
C621        C631   1.407       .  A
C621        C622   1.414       .  A
C622        C628   1.411       .  A
C622        C623   1.414       .  A
C623        C625   1.413       .  A
C623        C624   1.410       .  A
C624        C632   1.403       .  A
C625        C634   1.405       .  A
C625        C626   1.403       .  A
C626        C627   1.399       .  A
C626        H637   1.084       .  S
C627        C628   1.404       .  A
C627        H638   1.083       .  S
C628        C629   1.402       .  A
C629        C630   1.406       .  A
C629        H639   1.085       .  S
C630        C631   1.404       .  A
C631        H640   1.084       .  S
C632        C633   1.408       .  A
C632        H641   1.085       .  S
C633        C634   1.404       .  A
C634        H642   1.084       .  S
C643        C644   1.401       .  A
C643        C648   1.405       .  A
C643        H659   1.084       .  S
C644        C645   1.404       .  A
C644        H660   1.083       .  S
C645        C655   1.409       .  A
C645        C646   1.414       .  A
C646        C652   1.409       .  A
C646        C647   1.415       .  A
C647        C649   1.415       .  A
C647        C648   1.409       .  A
C648        C656   1.404       .  A
C649        C658   1.409       .  A
C649        C650   1.403       .  A
C650        C651   1.401       .  A
C650        H661   1.083       .  S
C651        C652   1.405       .  A
C651        H662   1.083       .  S
C652        C653   1.404       .  A
C653        C654   1.411       .  A
C653        H663   1.085       .  S
C654        C655   1.406       .  A
C655        H664   1.084       .  S
C656        C657   1.410       .  A
C656        H665   1.085       .  S
C657        C658   1.404       .  A
C658        H666   1.084       .  S
C667        C668   1.398       .  A
C667        C672   1.403       .  A
C667        H683   1.083       .  S
C668        C669   1.403       .  A
C668        H684   1.084       .  S
C669        C679   1.400       .  A
C669        C670   1.410       .  A
C670        C676   1.413       .  A
C670        C671   1.413       .  A
C671        C673   1.411       .  A
C671        C672   1.412       .  A
C672        C680   1.403       .  A
C673        C682   1.406       .  A
C673        C674   1.404       .  A
C674        C675   1.401       .  A
C674        H685   1.083       .  S
C675        C676   1.404       .  A
C675        H686   1.083       .  S
C676        C677   1.407       .  A
C677        C678   1.403       .  A
C677        H687   1.084       .  S
C678        C679   1.405       .  A
C679        H688   1.085       .  S
C680        C681   1.406       .  A
C680        H689   1.085       .  S
C681        C682   1.408       .  A
C682        H690   1.084       .  S
C691        C692   1.398       .  A
C691        C696   1.403       .  A
C691        H707   1.084       .  S
C692        C693   1.404       .  A
C692        H708   1.084       .  S
C693        C703   1.400       .  A
C693        C694   1.410       .  A
C694        C700   1.415       .  A
C694        C695   1.412       .  A
C695        C697   1.410       .  A
C695        C696   1.414       .  A
C696        C704   1.405       .  A
C697        C706   1.402       .  A
C697        C698   1.405       .  A
C698        C699   1.400       .  A
C698        H709   1.084       .  S
C699        C700   1.403       .  A
C699        H710   1.083       .  S
C700        C701   1.408       .  A
C701        C702   1.404       .  A
C701        H711   1.084       .  S
C702        C703   1.406       .  A
C703        H712   1.085       .  S
C704        C705   1.403       .  A
C704        H713   1.085       .  S
C705        C706   1.409       .  A
C706        H714   1.085       .  S
C715        C716   1.400       .  A
C715        C720   1.404       .  A
C715        H731   1.083       .  S
C716        C717   1.404       .  A
C716        H732   1.084       .  S
C717        C727   1.404       .  A
C717        C718   1.410       .  A
C718        C724   1.412       .  A
C718        C719   1.416       .  A
C719        C721   1.412       .  A
C719        C720   1.412       .  A
C720        C728   1.406       .  A
C721        C730   1.409       .  A
C721        C722   1.405       .  A
C722        C723   1.402       .  A
C722        H733   1.083       .  S
C723        C724   1.404       .  A
C723        H734   1.083       .  S
C724        C725   1.410       .  A
C725        C726   1.409       .  A
C725        H735   1.084       .  S
C726        C727   1.409       .  A
C727        H736   1.085       .  S
C728        C729   1.407       .  A
C728        H737   1.085       .  S
C729        C730   1.406       .  A
C730        H738   1.084       .  S
C739        C740   1.403       .  A
C739        C744   1.405       .  A
C739        H755   1.083       .  S
C740        C741   1.405       .  A
C740        H756   1.083       .  S
C741        C751   1.410       .  A
C741        C742   1.412       .  A
C742        C748   1.412       .  A
C742        C743   1.415       .  A
C743        C745   1.410       .  A
C743        C744   1.412       .  A
C744        C752   1.410       .  A
C745        C754   1.402       .  A
C745        C746   1.403       .  A
C746        C747   1.399       .  A
C746        H757   1.084       .  S
C747        C748   1.403       .  A
C747        H758   1.083       .  S
C748        C749   1.404       .  A
C749        C750   1.406       .  A
C749        H759   1.085       .  S
C750        C751   1.407       .  A
C751        H760   1.084       .  S
C752        C753   1.410       .  A
C752        H761   1.084       .  S
C753        C754   1.407       .  A
C754        H762   1.085       .  S
C763        C764   1.400       .  A
C763        C768   1.404       .  A
C763        H779   1.084       .  S
C764        C765   1.403       .  A
C764        H780   1.084       .  S
C765        C775   1.406       .  A
C765        C766   1.414       .  A
C766        C772   1.410       .  A
C766        C767   1.413       .  A
C767        C769   1.414       .  A
C767        C768   1.410       .  A
C768        C776   1.402       .  A
C769        C778   1.406       .  A
C769        C770   1.404       .  A
C770        C771   1.399       .  A
C770        H781   1.083       .  S
C771        C772   1.403       .  A
C771        H782   1.084       .  S
C772        C773   1.401       .  A
C773        C774   1.404       .  A
C773        H783   1.085       .  S
C774        C775   1.403       .  A
C775        H784   1.084       .  S
C776        C777   1.408       .  A
C776        H785   1.085       .  S
C777        C778   1.405       .  A
C778        H786   1.084       .  S
C787        C788   1.397       .  A
C787        C792   1.402       .  A
C787        H803   1.083       .  S
C788        C789   1.403       .  A
C788        H804   1.084       .  S
C789        C799   1.399       .  A
C789        C790   1.408       .  A
C790        C796   1.415       .  A
C790        C791   1.417       .  A
C791        C793   1.409       .  A
C791        C792   1.413       .  A
C792        C800   1.405       .  A
C793        C802   1.411       .  A
C793        C794   1.407       .  A
C794        C795   1.406       .  A
C794        H805   1.083       .  S
C795        C796   1.406       .  A
C795        H806   1.083       .  S
C796        C797   1.417       .  A
C797        C798   1.409       .  A
C797        H807   1.084       .  S
C798        C799   1.407       .  A
C799        H808   1.085       .  S
C800        C801   1.406       .  A
C800        H809   1.085       .  S
C801        C802   1.415       .  A
C802        H810   1.084       .  S
C811        C812   1.401       .  A
C811        C816   1.403       .  A
C811        H827   1.083       .  S
C812        C813   1.405       .  A
C812        H828   1.083       .  S
C813        C823   1.404       .  A
C813        C814   1.409       .  A
C814        C820   1.414       .  A
C814        C815   1.415       .  A
C815        C817   1.410       .  A
C815        C816   1.414       .  A
C816        C824   1.409       .  A
C817        C826   1.404       .  A
C817        C818   1.404       .  A
C818        C819   1.401       .  A
C818        H829   1.084       .  S
C819        C820   1.404       .  A
C819        H830   1.083       .  S
C820        C821   1.409       .  A
C821        C822   1.406       .  A
C821        H831   1.084       .  S
C822        C823   1.410       .  A
C823        H832   1.085       .  S
C824        C825   1.404       .  A
C824        H833   1.084       .  S
C825        C826   1.407       .  A
C826        H834   1.085       .  S
C835        C836   1.401       .  A
C835        C840   1.404       .  A
C835        H851   1.083       .  S
C836        C837   1.404       .  A
C836        H852   1.083       .  S
C837        C847   1.407       .  A
C837        C838   1.412       .  A
C838        C844   1.412       .  A
C838        C839   1.414       .  A
C839        C841   1.411       .  A
C839        C840   1.411       .  A
C840        C848   1.407       .  A
C841        C850   1.403       .  A
C841        C842   1.404       .  A
C842        C843   1.399       .  A
C842        H853   1.084       .  S
C843        C844   1.403       .  A
C843        H854   1.084       .  S
C844        C845   1.403       .  A
C845        C846   1.404       .  A
C845        H855   1.085       .  S
C846        C847   1.405       .  A
C847        H856   1.084       .  S
C848        C849   1.408       .  A
C848        H857   1.084       .  S
C849        C850   1.407       .  A
C850        H858   1.085       .  S
C859        C860   1.396       .  A
C859        C864   1.402       .  A
C859        H875   1.084       .  S
C860        C861   1.402       .  A
C860        H876   1.084       .  S
C861        C871   1.397       .  A
C861        C862   1.411       .  A
C862        C868   1.414       .  A
C862        C863   1.412       .  A
C863        C865   1.410       .  A
C863        C864   1.413       .  A
C864        C872   1.400       .  A
C865        C874   1.405       .  A
C865        C866   1.405       .  A
C866        C867   1.402       .  A
C866        H877   1.084       .  S
C867        C868   1.404       .  A
C867        H878   1.084       .  S
C868        C869   1.409       .  A
C869        C870   1.405       .  A
C869        H879   1.084       .  S
C870        C871   1.401       .  A
C871        H880   1.085       .  S
C872        C873   1.401       .  A
C872        H881   1.085       .  S
C873        C874   1.411       .  A
C874        H882   1.085       .  S
C883        C884   1.403       .  A
C883        C888   1.405       .  A
C883        H899   1.083       .  S
C884        C885   1.405       .  A
C884        H900   1.083       .  S
C885        C895   1.413       .  A
C885        C886   1.414       .  A
C886        C892   1.409       .  A
C886        C887   1.416       .  A
C887        C889   1.413       .  A
C887        C888   1.410       .  A
C888        C896   1.408       .  A
C889        C898   1.406       .  A
C889        C890   1.403       .  A
C890        C891   1.399       .  A
C890        H901   1.084       .  S
C891        C892   1.404       .  A
C891        H902   1.083       .  S
C892        C893   1.402       .  A
C893        C894   1.408       .  A
C893        H903   1.085       .  S
C894        C895   1.407       .  A
C895        H904   1.084       .  S
C896        C897   1.411       .  A
C896        H905   1.085       .  S
C897        C898   1.406       .  A
C898        H906   1.085       .  S
C907        C908   1.401       .  A
C907        C912   1.404       .  A
C907        H923   1.083       .  S
C908        C909   1.405       .  A
C908        H924   1.084       .  S
C909        C919   1.402       .  A
C909        C910   1.409       .  A
C910        C916   1.414       .  A
C910        C911   1.413       .  A
C911        C913   1.408       .  A
C911        C912   1.413       .  A
C912        C920   1.409       .  A
C913        C922   1.401       .  A
C913        C914   1.405       .  A
C914        C915   1.400       .  A
C914        H925   1.084       .  S
C915        C916   1.403       .  A
C915        H926   1.084       .  S
C916        C917   1.406       .  A
C917        C918   1.404       .  A
C917        H927   1.084       .  S
C918        C919   1.409       .  A
C919        H928   1.085       .  S
C920        C921   1.408       .  A
C920        H929   1.084       .  S
C921        C922   1.412       .  A
C922        H930   1.085       .  S
C931        C932   1.398       .  A
C931        C936   1.403       .  A
C931        H947   1.084       .  S
C932        C933   1.404       .  A
C932        H948   1.084       .  S
C933        C943   1.399       .  A
C933        C934   1.410       .  A
C934        C940   1.415       .  A
C934        C935   1.411       .  A
C935        C937   1.410       .  A
C935        C936   1.414       .  A
C936        C944   1.404       .  A
C937        C946   1.401       .  A
C937        C938   1.404       .  A
C938        C939   1.399       .  A
C938        H949   1.084       .  S
C939        C940   1.403       .  A
C939        H950   1.083       .  S
C940        C941   1.406       .  A
C941        C942   1.402       .  A
C941        H951   1.084       .  S
C942        C943   1.406       .  A
C943        H952   1.085       .  S
C944        C945   1.403       .  A
C944        H953   1.085       .  S
C945        C946   1.407       .  A
C946        H954   1.085       .  S
C955        C956   1.405       .  A
C955        C960   1.405       .  A
C955        H971   1.083       .  S
C956        C957   1.407       .  A
C956        H972   1.083       .  S
C957        C967   1.412       .  A
C957        C958   1.409       .  A
C958        C964   1.413       .  A
C958        C959   1.419       .  A
C959        C961   1.408       .  A
C959        C960   1.415       .  A
C960        C968   1.417       .  A
C961        C970   1.402       .  A
C961        C962   1.404       .  A
C962        C963   1.400       .  A
C962        H973   1.084       .  S
C963        C964   1.404       .  A
C963        H974   1.083       .  S
C964        C965   1.410       .  A
C965        C966   1.409       .  A
C965        H975   1.085       .  S
C966        C967   1.415       .  A
C967        H976   1.084       .  S
C968        C969   1.408       .  A
C968        H977   1.084       .  S
C969        C970   1.410       .  A
C970        H978   1.085       .  S
C979        C980   1.400       .  A
C979        C984   1.404       .  A
C979        H995   1.084       .  S
C980        C981   1.404       .  A
C980        H996   1.084       .  S
C981        C991   1.407       .  A
C981        C982   1.413       .  A
C982        C988   1.410       .  A
C982        C983   1.414       .  A
C983        C985   1.414       .  A
C983        C984   1.410       .  A
C984        C992   1.403       .  A
C985        C994   1.410       .  A
C985        C986   1.404       .  A
C986        C987   1.400       .  A
C986        H997   1.083       .  S
C987        C988   1.404       .  A
C987        H998   1.084       .  S
C988        C989   1.403       .  A
C989        C990   1.407       .  A
C989        H999   1.085       .  S
C990        C991   1.406       .  A
C991       H1000   1.085       .  S
C992        C993   1.406       .  A
C992       H1001   1.085       .  S
C993        C994   1.405       .  A
C994       H1002   1.084       .  S
C1003      C1004   1.398       .  A
C1003      C1008   1.403       .  A
C1003      H1019   1.084       .  S
C1004      C1005   1.403       .  A
C1004      H1020   1.084       .  S
C1005      C1015   1.404       .  A
C1005      C1006   1.412       .  A
C1006      C1012   1.411       .  A
C1006      C1007   1.413       .  A
C1007      C1009   1.414       .  A
C1007      C1008   1.410       .  A
C1008      C1016   1.400       .  A
C1009      C1018   1.408       .  A
C1009      C1010   1.404       .  A
C1010      C1011   1.401       .  A
C1010      H1021   1.083       .  S
C1011      C1012   1.405       .  A
C1011      H1022   1.083       .  S
C1012      C1013   1.406       .  A
C1013      C1014   1.408       .  A
C1013      H1023   1.084       .  S
C1014      C1015   1.406       .  A
C1015      H1024   1.085       .  S
C1016      C1017   1.404       .  A
C1016      H1025   1.085       .  S
C1017      C1018   1.404       .  A
C1018      H1026   1.084       .  S
C1027      C1028   1.401       .  A
C1027      C1032   1.405       .  A
C1027      H1043   1.084       .  S
C1028      C1029   1.404       .  A
C1028      H1044   1.084       .  S
C1029      C1039   1.409       .  A
C1029      C1030   1.414       .  A
C1030      C1036   1.410       .  A
C1030      C1031   1.415       .  A
C1031      C1033   1.414       .  A
C1031      C1032   1.409       .  A
C1032      C1040   1.405       .  A
C1033      C1042   1.407       .  A
C1033      C1034   1.403       .  A
C1034      C1035   1.399       .  A
C1034      H1045   1.083       .  S
C1035      C1036   1.404       .  A
C1035      H1046   1.084       .  S
C1036      C1037   1.403       .  A
C1037      C1038   1.407       .  A
C1037      H1047   1.085       .  S
C1038      C1039   1.405       .  A
C1039      H1048   1.084       .  S
C1040      C1041   1.412       .  A
C1040      H1049   1.085       .  S
C1041      C1042   1.405       .  A
C1042      H1050   1.084       .  S
C1051      C1052   1.398       .  A
C1051      C1056   1.403       .  A
C1051      H1067   1.084       .  S
C1052      C1053   1.403       .  A
C1052      H1068   1.083       .  S
C1053      C1063   1.402       .  A
C1053      C1054   1.410       .  A
C1054      C1060   1.413       .  A
C1054      C1055   1.415       .  A
C1055      C1057   1.411       .  A
C1055      C1056   1.412       .  A
C1056      C1064   1.403       .  A
C1057      C1066   1.407       .  A
C1057      C1058   1.405       .  A
C1058      C1059   1.402       .  A
C1058      H1069   1.083       .  S
C1059      C1060   1.405       .  A
C1059      H1070   1.083       .  S
C1060      C1061   1.410       .  A
C1061      C1062   1.406       .  A
C1061      H1071   1.084       .  S
C1062      C1063   1.405       .  A
C1063      H1072   1.085       .  S
C1064      C1065   1.405       .  A
C1064      H1073   1.085       .  S
C1065      C1066   1.410       .  A
C1066      H1074   1.084       .  S
C1075      C1076   1.402       .  A
C1075      C1080   1.405       .  A
C1075      H1091   1.083       .  S
C1076      C1077   1.405       .  A
C1076      H1092   1.084       .  S
C1077      C1087   1.405       .  A
C1077      C1078   1.410       .  A
C1078      C1084   1.414       .  A
C1078      C1079   1.414       .  A
C1079      C1081   1.409       .  A
C1079      C1080   1.414       .  A
C1080      C1088   1.410       .  A
C1081      C1090   1.401       .  A
C1081      C1082   1.404       .  A
C1082      C1083   1.398       .  A
C1082      H1093   1.083       .  S
C1083      C1084   1.402       .  A
C1083      H1094   1.084       .  S
C1084      C1085   1.404       .  A
C1085      C1086   1.401       .  A
C1085      H1095   1.084       .  S
C1086      C1087   1.409       .  A
C1087      H1096   1.085       .  S
C1088      C1089   1.407       .  A
C1088      H1097   1.084       .  S
C1089      C1090   1.409       .  A
C1090      H1098   1.085       .  S
C1099      C1100   1.404       .  A
C1099      C1104   1.406       .  A
C1099      H1115   1.083       .  S
C1100      C1101   1.405       .  A
C1100      H1116   1.083       .  S
C1101      C1111   1.411       .  A
C1101      C1102   1.413       .  A
C1102      C1108   1.410       .  A
C1102      C1103   1.416       .  A
C1103      C1105   1.412       .  A
C1103      C1104   1.411       .  A
C1104      C1112   1.410       .  A
C1105      C1114   1.405       .  A
C1105      C1106   1.403       .  A
C1106      C1107   1.399       .  A
C1106      H1117   1.083       .  S
C1107      C1108   1.403       .  A
C1107      H1118   1.083       .  S
C1108      C1109   1.403       .  A
C1109      C1110   1.406       .  A
C1109      H1119   1.085       .  S
C1110      C1111   1.408       .  A
C1111      H1120   1.084       .  S
C1112      C1113   1.413       .  A
C1112      H1121   1.084       .  S
C1113      C1114   1.407       .  A
C1114      H1122   1.085       .  S
C1123      C1124   1.401       .  A
C1123      C1128   1.404       .  A
C1123      H1139   1.083       .  S
C1124      C1125   1.403       .  A
C1124      H1140   1.083       .  S
C1125      C1135   1.406       .  A
C1125      C1126   1.413       .  A
C1126      C1132   1.410       .  A
C1126      C1127   1.412       .  A
C1127      C1129   1.412       .  A
C1127      C1128   1.411       .  A
C1128      C1136   1.405       .  A
C1129      C1138   1.402       .  A
C1129      C1130   1.403       .  A
C1130      C1131   1.398       .  A
C1130      H1141   1.084       .  S
C1131      C1132   1.403       .  A
C1131      H1142   1.084       .  S
C1132      C1133   1.399       .  A
C1133      C1134   1.403       .  A
C1133      H1143   1.085       .  S
C1134      C1135   1.403       .  A
C1135      H1144   1.084       .  S
C1136      C1137   1.408       .  A
C1136      H1145   1.084       .  S
C1137      C1138   1.407       .  A
C1138      H1146   1.085       .  S
C1147      C1148   1.400       .  A
C1147      C1152   1.403       .  A
C1147      H1163   1.084       .  S
C1148      C1149   1.404       .  A
C1148      H1164   1.084       .  S
C1149      C1159   1.401       .  A
C1149      C1150   1.410       .  A
C1150      C1156   1.414       .  A
C1150      C1151   1.411       .  A
C1151      C1153   1.409       .  A
C1151      C1152   1.414       .  A
C1152      C1160   1.406       .  A
C1153      C1162   1.399       .  A
C1153      C1154   1.404       .  A
C1154      C1155   1.398       .  A
C1154      H1165   1.084       .  S
C1155      C1156   1.402       .  A
C1155      H1166   1.084       .  S
C1156      C1157   1.404       .  A
C1157      C1158   1.401       .  A
C1157      H1167   1.084       .  S
C1158      C1159   1.407       .  A
C1159      H1168   1.085       .  S
C1160      C1161   1.404       .  A
C1160      H1169   1.084       .  S
C1161      C1162   1.409       .  A
C1162      H1170   1.085       .  S
C1171      C1172   1.397       .  A
C1171      C1176   1.402       .  A
C1171      H1187   1.083       .  S
C1172      C1173   1.403       .  A
C1172      H1188   1.084       .  S
C1173      C1183   1.399       .  A
C1173      C1174   1.409       .  A
C1174      C1180   1.415       .  A
C1174      C1175   1.417       .  A
C1175      C1177   1.409       .  A
C1175      C1176   1.413       .  A
C1176      C1184   1.405       .  A
C1177      C1186   1.411       .  A
C1177      C1178   1.407       .  A
C1178      C1179   1.406       .  A
C1178      H1189   1.083       .  S
C1179      C1180   1.406       .  A
C1179      H1190   1.083       .  S
C1180      C1181   1.417       .  A
C1181      C1182   1.410       .  A
C1181      H1191   1.084       .  S
C1182      C1183   1.406       .  A
C1183      H1192   1.085       .  S
C1184      C1185   1.405       .  A
C1184      H1193   1.085       .  S
C1185      C1186   1.417       .  A
C1186      H1194   1.084       .  S
C1195      C1196   1.401       .  A
C1195      C1200   1.405       .  A
C1195      H1211   1.083       .  S
C1196      C1197   1.403       .  A
C1196      H1212   1.084       .  S
C1197      C1207   1.408       .  A
C1197      C1198   1.414       .  A
C1198      C1204   1.410       .  A
C1198      C1199   1.415       .  A
C1199      C1201   1.413       .  A
C1199      C1200   1.410       .  A
C1200      C1208   1.405       .  A
C1201      C1210   1.408       .  A
C1201      C1202   1.404       .  A
C1202      C1203   1.401       .  A
C1202      H1213   1.083       .  S
C1203      C1204   1.404       .  A
C1203      H1214   1.084       .  S
C1204      C1205   1.404       .  A
C1205      C1206   1.407       .  A
C1205      H1215   1.085       .  S
C1206      C1207   1.403       .  A
C1207      H1216   1.084       .  S
C1208      C1209   1.411       .  A
C1208      H1217   1.085       .  S
C1209      C1210   1.406       .  A
C1210      H1218   1.084       .  S
C1219      C1220   1.400       .  A
C1219      C1224   1.405       .  A
C1219      H1235   1.083       .  S
C1220      C1221   1.403       .  A
C1220      H1236   1.084       .  S
C1221      C1231   1.407       .  A
C1221      C1222   1.415       .  A
C1222      C1228   1.409       .  A
C1222      C1223   1.412       .  A
C1223      C1225   1.413       .  A
C1223      C1224   1.409       .  A
C1224      C1232   1.403       .  A
C1225      C1234   1.405       .  A
C1225      C1226   1.403       .  A
C1226      C1227   1.399       .  A
C1226      H1237   1.083       .  S
C1227      C1228   1.404       .  A
C1227      H1238   1.084       .  S
C1228      C1229   1.399       .  A
C1229      C1230   1.406       .  A
C1229      H1239   1.085       .  S
C1230      C1231   1.402       .  A
C1231      H1240   1.084       .  S
C1232      C1233   1.411       .  A
C1232      H1241   1.085       .  S
C1233      C1234   1.406       .  A
C1234      H1242   1.084       .  S
C1243      C1244   1.399       .  A
C1243      C1248   1.403       .  A
C1243      H1259   1.083       .  S
C1244      C1245   1.404       .  A
C1244      H1260   1.084       .  S
C1245      C1255   1.400       .  A
C1245      C1246   1.409       .  A
C1246      C1252   1.415       .  A
C1246      C1247   1.413       .  A
C1247      C1249   1.409       .  A
C1247      C1248   1.414       .  A
C1248      C1256   1.406       .  A
C1249      C1258   1.402       .  A
C1249      C1250   1.405       .  A
C1250      C1251   1.401       .  A
C1250      H1261   1.084       .  S
C1251      C1252   1.403       .  A
C1251      H1262   1.083       .  S
C1252      C1253   1.409       .  A
C1253      C1254   1.404       .  A
C1253      H1263   1.084       .  S
C1254      C1255   1.407       .  A
C1255      H1264   1.085       .  S
C1256      C1257   1.404       .  A
C1256      H1265   1.084       .  S
C1257      C1258   1.409       .  A
C1258      H1266   1.085       .  S
C1267      C1268   1.402       .  A
C1267      C1272   1.405       .  A
C1267      H1283   1.083       .  S
C1268      C1269   1.404       .  A
C1268      H1284   1.083       .  S
C1269      C1279   1.411       .  A
C1269      C1270   1.415       .  A
C1270      C1276   1.409       .  A
C1270      C1271   1.414       .  A
C1271      C1273   1.413       .  A
C1271      C1272   1.410       .  A
C1272      C1280   1.406       .  A
C1273      C1282   1.405       .  A
C1273      C1274   1.403       .  A
C1274      C1275   1.399       .  A
C1274      H1285   1.084       .  S
C1275      C1276   1.404       .  A
C1275      H1286   1.084       .  S
C1276      C1277   1.401       .  A
C1277      C1278   1.406       .  A
C1277      H1287   1.085       .  S
C1278      C1279   1.405       .  A
C1279      H1288   1.084       .  S
C1280      C1281   1.409       .  A
C1280      H1289   1.084       .  S
C1281      C1282   1.406       .  A
C1282      H1290   1.085       .  S
C1291      C1292   1.401       .  A
C1291      C1296   1.404       .  A
C1291      H1307   1.083       .  S
C1292      C1293   1.405       .  A
C1292      H1308   1.084       .  S
C1293      C1303   1.403       .  A
C1293      C1294   1.409       .  A
C1294      C1300   1.414       .  A
C1294      C1295   1.413       .  A
C1295      C1297   1.409       .  A
C1295      C1296   1.415       .  A
C1296      C1304   1.409       .  A
C1297      C1306   1.400       .  A
C1297      C1298   1.404       .  A
C1298      C1299   1.399       .  A
C1298      H1309   1.084       .  S
C1299      C1300   1.403       .  A
C1299      H1310   1.084       .  S
C1300      C1301   1.405       .  A
C1301      C1302   1.403       .  A
C1301      H1311   1.084       .  S
C1302      C1303   1.409       .  A
C1303      H1312   1.085       .  S
C1304      C1305   1.405       .  A
C1304      H1313   1.084       .  S
C1305      C1306   1.406       .  A
C1306      H1314   1.085       .  S
C1315      C1316   1.398       .  A
C1315      C1320   1.403       .  A
C1315      H1331   1.084       .  S
C1316      C1317   1.403       .  A
C1316      H1332   1.084       .  S
C1317      C1327   1.402       .  A
C1317      C1318   1.413       .  A
C1318      C1324   1.411       .  A
C1318      C1319   1.410       .  A
C1319      C1321   1.414       .  A
C1319      C1320   1.411       .  A
C1320      C1328   1.400       .  A
C1321      C1330   1.404       .  A
C1321      C1322   1.403       .  A
C1322      C1323   1.398       .  A
C1322      H1333   1.083       .  S
C1323      C1324   1.403       .  A
C1323      H1334   1.084       .  S
C1324      C1325   1.400       .  A
C1325      C1326   1.406       .  A
C1325      H1335   1.085       .  S
C1326      C1327   1.403       .  A
C1327      H1336   1.085       .  S
C1328      C1329   1.404       .  A
C1328      H1337   1.085       .  S
C1329      C1330   1.402       .  A
C1330      H1338   1.084       .  S
C1339      C1340   1.398       .  A
C1339      C1344   1.403       .  A
C1339      H1355   1.084       .  S
C1340      C1341   1.403       .  A
C1340      H1356   1.084       .  S
C1341      C1351   1.403       .  A
C1341      C1342   1.412       .  A
C1342      C1348   1.411       .  A
C1342      C1343   1.413       .  A
C1343      C1345   1.414       .  A
C1343      C1344   1.410       .  A
C1344      C1352   1.400       .  A
C1345      C1354   1.410       .  A
C1345      C1346   1.404       .  A
C1346      C1347   1.402       .  A
C1346      H1357   1.083       .  S
C1347      C1348   1.405       .  A
C1347      H1358   1.083       .  S
C1348      C1349   1.407       .  A
C1349      C1350   1.409       .  A
C1349      H1359   1.084       .  S
C1350      C1351   1.406       .  A
C1351      H1360   1.085       .  S
C1352      C1353   1.405       .  A
C1352      H1361   1.085       .  S
C1353      C1354   1.405       .  A
C1354      H1362   1.084       .  S
C1363      C1364   1.403       .  A
C1363      C1368   1.404       .  A
C1363      H1379   1.083       .  S
C1364      C1365   1.406       .  A
C1364      H1380   1.083       .  S
C1365      C1375   1.408       .  A
C1365      C1366   1.410       .  A
C1366      C1372   1.412       .  A
C1366      C1367   1.416       .  A
C1367      C1369   1.409       .  A
C1367      C1368   1.414       .  A
C1368      C1376   1.412       .  A
C1369      C1378   1.402       .  A
C1369      C1370   1.404       .  A
C1370      C1371   1.399       .  A
C1370      H1381   1.084       .  S
C1371      C1372   1.403       .  A
C1371      H1382   1.084       .  S
C1372      C1373   1.406       .  A
C1373      C1374   1.407       .  A
C1373      H1383   1.085       .  S
C1374      C1375   1.413       .  A
C1375      H1384   1.084       .  S
C1376      C1377   1.406       .  A
C1376      H1385   1.084       .  S
C1377      C1378   1.407       .  A
C1378      H1386   1.085       .  S
C1387      C1388   1.401       .  A
C1387      C1392   1.404       .  A
C1387      H1403   1.083       .  S
C1388      C1389   1.405       .  A
C1388      H1404   1.084       .  S
C1389      C1399   1.403       .  A
C1389      C1390   1.409       .  A
C1390      C1396   1.414       .  A
C1390      C1391   1.415       .  A
C1391      C1393   1.410       .  A
C1391      C1392   1.414       .  A
C1392      C1400   1.409       .  A
C1393      C1402   1.404       .  A
C1393      C1394   1.405       .  A
C1394      C1395   1.401       .  A
C1394      H1405   1.083       .  S
C1395      C1396   1.403       .  A
C1395      H1406   1.083       .  S
C1396      C1397   1.408       .  A
C1397      C1398   1.405       .  A
C1397      H1407   1.084       .  S
C1398      C1399   1.409       .  A
C1399      H1408   1.085       .  S
C1400      C1401   1.405       .  A
C1400      H1409   1.084       .  S
C1401      C1402   1.408       .  A
C1402      H1410   1.085       .  S
C1411      C1412   1.399       .  A
C1411      C1416   1.404       .  A
C1411      H1427   1.084       .  S
C1412      C1413   1.403       .  A
C1412      H1428   1.083       .  S
C1413      C1423   1.407       .  A
C1413      C1414   1.415       .  A
C1414      C1420   1.409       .  A
C1414      C1415   1.412       .  A
C1415      C1417   1.414       .  A
C1415      C1416   1.409       .  A
C1416      C1424   1.401       .  A
C1417      C1426   1.407       .  A
C1417      C1418   1.403       .  A
C1418      C1419   1.400       .  A
C1418      H1429   1.084       .  S
C1419      C1420   1.404       .  A
C1419      H1430   1.084       .  S
C1420      C1421   1.401       .  A
C1421      C1422   1.408       .  A
C1421      H1431   1.085       .  S
C1422      C1423   1.403       .  A
C1423      H1432   1.084       .  S
C1424      C1425   1.408       .  A
C1424      H1433   1.085       .  S
C1425      C1426   1.405       .  A
C1426      H1434   1.084       .  S
C1435      C1436   1.405       .  A
C1435      C1440   1.406       .  A
C1435      H1451   1.083       .  S
C1436      C1437   1.406       .  A
C1436      H1452   1.083       .  S
C1437      C1447   1.414       .  A
C1437      C1438   1.414       .  A
C1438      C1444   1.409       .  A
C1438      C1439   1.416       .  A
C1439      C1441   1.412       .  A
C1439      C1440   1.410       .  A
C1440      C1448   1.411       .  A
C1441      C1450   1.404       .  A
C1441      C1442   1.403       .  A
C1442      C1443   1.398       .  A
C1442      H1453   1.084       .  S
C1443      C1444   1.403       .  A
C1443      H1454   1.083       .  S
C1444      C1445   1.401       .  A
C1445      C1446   1.407       .  A
C1445      H1455   1.085       .  S
C1446      C1447   1.408       .  A
C1447      H1456   1.084       .  S
C1448      C1449   1.414       .  A
C1448      H1457   1.084       .  S
C1449      C1450   1.406       .  A
C1450      H1458   1.085       .  S
C1459      C1460   1.399       .  A
C1459      C1464   1.403       .  A
C1459      H1475   1.084       .  S
C1460      C1461   1.404       .  A
C1460      H1476   1.083       .  S
C1461      C1471   1.402       .  A
C1461      C1462   1.411       .  A
C1462      C1468   1.414       .  A
C1462      C1463   1.414       .  A
C1463      C1465   1.411       .  A
C1463      C1464   1.413       .  A
C1464      C1472   1.404       .  A
C1465      C1474   1.405       .  A
C1465      C1466   1.405       .  A
C1466      C1467   1.401       .  A
C1466      H1477   1.084       .  S
C1467      C1468   1.404       .  A
C1467      H1478   1.083       .  S
C1468      C1469   1.409       .  A
C1469      C1470   1.405       .  A
C1469      H1479   1.084       .  S
C1470      C1471   1.405       .  A
C1471      H1480   1.085       .  S
C1472      C1473   1.404       .  A
C1472      H1481   1.085       .  S
C1473      C1474   1.408       .  A
C1474      H1482   1.085       .  S
C1483      C1484   1.401       .  A
C1483      C1488   1.404       .  A
C1483      H1499   1.083       .  S
C1484      C1485   1.404       .  A
C1484      H1500   1.083       .  S
C1485      C1495   1.408       .  A
C1485      C1486   1.413       .  A
C1486      C1492   1.410       .  A
C1486      C1487   1.414       .  A
C1487      C1489   1.412       .  A
C1487      C1488   1.411       .  A
C1488      C1496   1.406       .  A
C1489      C1498   1.405       .  A
C1489      C1490   1.404       .  A
C1490      C1491   1.399       .  A
C1490      H1501   1.084       .  S
C1491      C1492   1.404       .  A
C1491      H1502   1.084       .  S
C1492      C1493   1.402       .  A
C1493      C1494   1.405       .  A
C1493      H1503   1.085       .  S
C1494      C1495   1.405       .  A
C1495      H1504   1.084       .  S
C1496      C1497   1.409       .  A
C1496      H1505   1.084       .  S
C1497      C1498   1.407       .  A
C1498      H1506   1.085       .  S
C1507      C1508   1.397       .  A
C1507      C1512   1.403       .  A
C1507      H1523   1.083       .  S
C1508      C1509   1.402       .  A
C1508      H1524   1.084       .  S
C1509      C1519   1.399       .  A
C1509      C1510   1.410       .  A
C1510      C1516   1.414       .  A
C1510      C1511   1.414       .  A
C1511      C1513   1.410       .  A
C1511      C1512   1.412       .  A
C1512      C1520   1.403       .  A
C1513      C1522   1.409       .  A
C1513      C1514   1.406       .  A
C1514      C1515   1.403       .  A
C1514      H1525   1.083       .  S
C1515      C1516   1.405       .  A
C1515      H1526   1.083       .  S
C1516      C1517   1.411       .  A
C1517      C1518   1.406       .  A
C1517      H1527   1.084       .  S
C1518      C1519   1.404       .  A
C1519      H1528   1.085       .  S
C1520      C1521   1.405       .  A
C1520      H1529   1.085       .  S
C1521      C1522   1.413       .  A
C1522      H1530   1.084       .  S
C1531      C1532   1.402       .  A
C1531      C1536   1.406       .  A
C1531      H1547   1.083       .  S
C1532      C1533   1.403       .  A
C1532      H1548   1.084       .  S
C1533      C1543   1.410       .  A
C1533      C1534   1.415       .  A
C1534      C1540   1.409       .  A
C1534      C1535   1.416       .  A
C1535      C1537   1.414       .  A
C1535      C1536   1.409       .  A
C1536      C1544   1.406       .  A
C1537      C1546   1.410       .  A
C1537      C1538   1.404       .  A
C1538      C1539   1.401       .  A
C1538      H1549   1.083       .  S
C1539      C1540   1.404       .  A
C1539      H1550   1.084       .  S
C1540      C1541   1.403       .  A
C1541      C1542   1.408       .  A
C1541      H1551   1.085       .  S
C1542      C1543   1.405       .  A
C1543      H1552   1.084       .  S
C1544      C1545   1.413       .  A
C1544      H1553   1.085       .  S
C1545      C1546   1.406       .  A
C1546      H1554   1.084       .  S
C1555      C1556   1.404       .  A
C1555      C1560   1.405       .  A
C1555      H1571   1.084       .  S
C1556      C1557   1.406       .  A
C1556      H1572   1.083       .  S
C1557      C1567   1.414       .  A
C1557      C1558   1.413       .  A
C1558      C1564   1.410       .  A
C1558      C1559   1.417       .  A
C1559      C1561   1.412       .  A
C1559      C1560   1.410       .  A
C1560      C1568   1.409       .  A
C1561      C1570   1.406       .  A
C1561      C1562   1.403       .  A
C1562      C1563   1.399       .  A
C1562      H1573   1.084       .  S
C1563      C1564   1.404       .  A
C1563      H1574   1.083       .  S
C1564      C1565   1.403       .  A
C1565      C1566   1.407       .  A
C1565      H1575   1.085       .  S
C1566      C1567   1.409       .  A
C1567      H1576   1.084       .  S
C1568      C1569   1.411       .  A
C1568      H1577   1.084       .  S
C1569      C1570   1.407       .  A
C1570      H1578   1.085       .  S
C1579      C1580   1.400       .  A
C1579      C1584   1.405       .  A
C1579      H1595   1.083       .  S
C1580      C1581   1.403       .  A
C1580      H1596   1.083       .  S
C1581      C1591   1.408       .  A
C1581      C1582   1.415       .  A
C1582      C1588   1.410       .  A
C1582      C1583   1.415       .  A
C1583      C1585   1.414       .  A
C1583      C1584   1.410       .  A
C1584      C1592   1.403       .  A
C1585      C1594   1.408       .  A
C1585      C1586   1.404       .  A
C1586      C1587   1.401       .  A
C1586      H1597   1.084       .  S
C1587      C1588   1.405       .  A
C1587      H1598   1.084       .  S
C1588      C1589   1.403       .  A
C1589      C1590   1.408       .  A
C1589      H1599   1.085       .  S
C1590      C1591   1.403       .  A
C1591      H1600   1.084       .  S
C1592      C1593   1.409       .  A
C1592      H1601   1.085       .  S
C1593      C1594   1.406       .  A
C1594      H1602   1.084       .  S
C1603      C1604   1.401       .  A
C1603      C1608   1.404       .  A
C1603      H1619   1.083       .  S
C1604      C1605   1.405       .  A
C1604      H1620   1.083       .  S
C1605      C1615   1.407       .  A
C1605      C1606   1.411       .  A
C1606      C1612   1.412       .  A
C1606      C1607   1.413       .  A
C1607      C1609   1.410       .  A
C1607      C1608   1.414       .  A
C1608      C1616   1.408       .  A
C1609      C1618   1.400       .  A
C1609      C1610   1.403       .  A
C1610      C1611   1.398       .  A
C1610      H1621   1.084       .  S
C1611      C1612   1.403       .  A
C1611      H1622   1.084       .  S
C1612      C1613   1.403       .  A
C1613      C1614   1.406       .  A
C1613      H1623   1.085       .  S
C1614      C1615   1.410       .  A
C1615      H1624   1.084       .  S
C1616      C1617   1.404       .  A
C1616      H1625   1.084       .  S
C1617      C1618   1.406       .  A
C1618      H1626   1.085       .  S
C1627      C1628   1.399       .  A
C1627      C1632   1.403       .  A
C1627      H1643   1.084       .  S
C1628      C1629   1.404       .  A
C1628      H1644   1.084       .  S
C1629      C1639   1.402       .  A
C1629      C1630   1.410       .  A
C1630      C1636   1.414       .  A
C1630      C1631   1.415       .  A
C1631      C1633   1.410       .  A
C1631      C1632   1.413       .  A
C1632      C1640   1.405       .  A
C1633      C1642   1.405       .  A
C1633      C1634   1.405       .  A
C1634      C1635   1.402       .  A
C1634      H1645   1.084       .  S
C1635      C1636   1.404       .  A
C1635      H1646   1.083       .  S
C1636      C1637   1.410       .  A
C1637      C1638   1.405       .  A
C1637      H1647   1.084       .  S
C1638      C1639   1.406       .  A
C1639      H1648   1.085       .  S
C1640      C1641   1.404       .  A
C1640      H1649   1.085       .  S
C1641      C1642   1.409       .  A
C1642      H1650   1.085       .  S
C1651      C1652   1.399       .  A
C1651      C1656   1.404       .  A
C1651      H1667   1.084       .  S
C1652      C1653   1.403       .  A
C1652      H1668   1.084       .  S
C1653      C1663   1.402       .  A
C1653      C1654   1.411       .  A
C1654      C1660   1.412       .  A
C1654      C1655   1.414       .  A
C1655      C1657   1.412       .  A
C1655      C1656   1.411       .  A
C1656      C1664   1.404       .  A
C1657      C1666   1.407       .  A
C1657      C1658   1.404       .  A
C1658      C1659   1.401       .  A
C1658      H1669   1.083       .  S
C1659      C1660   1.404       .  A
C1659      H1670   1.083       .  S
C1660      C1661   1.407       .  A
C1661      C1662   1.404       .  A
C1661      H1671   1.084       .  S
C1662      C1663   1.405       .  A
C1663      H1672   1.085       .  S
C1664      C1665   1.408       .  A
C1664      H1673   1.085       .  S
C1665      C1666   1.409       .  A
C1666      H1674   1.084       .  S
C1675      C1676   1.399       .  A
C1675      C1680   1.403       .  A
C1675      H1691   1.083       .  S
C1676      C1677   1.402       .  A
C1676      H1692   1.083       .  S
C1677      C1687   1.405       .  A
C1677      C1678   1.413       .  A
C1678      C1684   1.411       .  A
C1678      C1679   1.413       .  A
C1679      C1681   1.412       .  A
C1679      C1680   1.411       .  A
C1680      C1688   1.402       .  A
C1681      C1690   1.406       .  A
C1681      C1682   1.404       .  A
C1682      C1683   1.401       .  A
C1682      H1693   1.084       .  S
C1683      C1684   1.405       .  A
C1683      H1694   1.084       .  S
C1684      C1685   1.404       .  A
C1685      C1686   1.407       .  A
C1685      H1695   1.085       .  S
C1686      C1687   1.402       .  A
C1687      H1696   1.084       .  S
C1688      C1689   1.406       .  A
C1688      H1697   1.085       .  S
C1689      C1690   1.406       .  A
C1690      H1698   1.085       .  S
C1699      C1700   1.400       .  A
C1699      C1704   1.403       .  A
C1699      H1715   1.084       .  S
C1700      C1701   1.405       .  A
C1700      H1716   1.084       .  S
C1701      C1711   1.403       .  A
C1701      C1702   1.410       .  A
C1702      C1708   1.414       .  A
C1702      C1703   1.412       .  A
C1703      C1705   1.410       .  A
C1703      C1704   1.415       .  A
C1704      C1712   1.407       .  A
C1705      C1714   1.398       .  A
C1705      C1706   1.403       .  A
C1706      C1707   1.398       .  A
C1706      H1717   1.084       .  S
C1707      C1708   1.403       .  A
C1707      H1718   1.083       .  S
C1708      C1709   1.405       .  A
C1709      C1710   1.403       .  A
C1709      H1719   1.084       .  S
C1710      C1711   1.409       .  A
C1711      H1720   1.085       .  S
C1712      C1713   1.403       .  A
C1712      H1721   1.084       .  S
C1713      C1714   1.404       .  A
C1714      H1722   1.085       .  S
C1723      C1724   1.405       .  A
C1723      C1728   1.407       .  A
C1723      H1739   1.083       .  S
C1724      C1725   1.405       .  A
C1724      H1740   1.083       .  S
C1725      C1735   1.415       .  A
C1725      C1726   1.414       .  A
C1726      C1732   1.409       .  A
C1726      C1727   1.419       .  A
C1727      C1729   1.413       .  A
C1727      C1728   1.409       .  A
C1728      C1736   1.412       .  A
C1729      C1738   1.408       .  A
C1729      C1730   1.403       .  A
C1730      C1731   1.399       .  A
C1730      H1741   1.083       .  S
C1731      C1732   1.404       .  A
C1731      H1742   1.084       .  S
C1732      C1733   1.403       .  A
C1733      C1734   1.408       .  A
C1733      H1743   1.085       .  S
C1734      C1735   1.407       .  A
C1735      H1744   1.084       .  S
C1736      C1737   1.416       .  A
C1736      H1745   1.084       .  S
C1737      C1738   1.408       .  A
C1738      H1746   1.085       .  S
