geometry optimzed in LAMMPS
_audit_creation_date              2020-12-01 
_audit_creation_method            'lammps2cif' 
_symmetry_space_group_name_H-M    'P1' 
_symmetry_Int_Tables_number       1 
_symmetry_cell_setting            triclinic 
loop_ 
_symmetry_equiv_pos_as_xyz 
  x,y,z 
_cell_length_a                    80.46575435 
_cell_length_b                    80.29134510927636 
_cell_length_c                    53.8563872741676 
_cell_angle_alpha                 89.99339329874543 
_cell_angle_beta                  89.96316432950768 
_cell_angle_gamma                 119.92073386710202 
loop_ 
_atom_site_label 
_atom_site_type_symbol 
_atom_site_fract_x 
_atom_site_fract_y 
_atom_site_fract_z 
_atom_site_charge 
O1          O  0.33811352  0.85831418  0.62725797    -0.57600
C2          C  0.36460202  0.86678868  0.56099891     0.75100
O3          O  0.30600872  0.85803668  0.55860915    -0.58700
C4          C  0.32914890  0.86483094  0.63944940     0.75000
C5          C  0.34817608  0.91060948  0.58022656     0.77400
Cd6        Cd  0.33444471  0.86991608  0.58612963     1.37500
O7          O  0.36325945  0.86622469  0.58444572    -0.57600
O8          O  0.35890729  0.90411396  0.58695264    -0.56400
C9          C  0.29978927  0.84033492  0.56238432     0.77400
O10         O  0.33082407  0.89823039  0.57600942    -0.58800
O11         O  0.35183555  0.86839385  0.54932152    -0.57200
O12         O  0.32201833  0.87305799  0.62690950    -0.57200
O13         O  0.30922313  0.83633087  0.57766599    -0.56400
O14         O  0.14188382  0.64774100  0.42766439    -0.57600
C15         C  0.13618072  0.67642116  0.36902872     0.75100
O16         O  0.10260601  0.67371118  0.43724668    -0.58700
C17         C  0.13355967  0.64110759  0.44821792     0.75000
C18         C  0.16060018  0.70541896  0.44632734     0.77400
Cd19       Cd  0.13058127  0.67120632  0.42234545     1.37500
O20         O  0.13759048  0.66350996  0.38070391    -0.57600
O21         O  0.16405379  0.69468434  0.43271594    -0.56400
C22         C  0.09009526  0.65852894  0.42657307     0.77400
O23         O  0.14313683  0.70077005  0.44836371    -0.58800
O24         O  0.13244544  0.68728993  0.38202935    -0.57200
O25         O  0.12388536  0.64832647  0.45666420    -0.57200
O26         O  0.09636822  0.64949309  0.41403404    -0.56400
O27         O  0.35845434  0.85459459  0.93004263    -0.57600
C28         C  0.33061415  0.86302179  0.87445825     0.75100
O29         O  0.30827282  0.85402772  0.95769427    -0.58700
C30         C  0.36364668  0.86017710  0.95211996     0.75000
C31         C  0.35067046  0.90695981  0.93319679     0.77400
Cd32       Cd  0.33515118  0.86618250  0.92763474     1.37500
O33         O  0.34073759  0.85748098  0.88589698    -0.57600
O34         O  0.36061462  0.89957454  0.92640202    -0.56400
C35         C  0.29943870  0.83712797  0.94905308     0.77400
O36         O  0.33309786  0.89537674  0.93758215    -0.58800
O37         O  0.32249578  0.86993655  0.88766476    -0.57200
O38         O  0.35528961  0.86796446  0.96289791    -0.57200
O39         O  0.30697791  0.83387853  0.93046423    -0.56400
O40         O  0.13648048  0.65655605  0.12357957    -0.57600
C41         C  0.13346304  0.63331819  0.05672940     0.75100
O42         O  0.10162822  0.66702363  0.07164802    -0.58700
C43         C  0.13414026  0.66925385  0.13434551     0.75000
C44         C  0.15929930  0.69797885  0.05622122     0.77400
Cd45       Cd  0.13017781  0.66374171  0.08107393     1.37500
O46         O  0.14321300  0.64164906  0.07588218    -0.57600
O47         O  0.16320596  0.68976262  0.07340508    -0.56400
C48         C  0.08964268  0.64993827  0.07803173     0.77400
O49         O  0.14174801  0.69054723  0.05056553    -0.58800
O50         O  0.12270554  0.63939671  0.04862933    -0.57200
O51         O  0.13038876  0.67964880  0.12043861    -0.57200
O52         O  0.09654303  0.63971257  0.08549745    -0.56400
O53         O  0.13284440  0.49754136  0.57713655    -0.57600
C54         C  0.13595515  0.46405797  0.62905819     0.75100
O55         O  0.10224662  0.43319621  0.56696996    -0.58700
C56         C  0.13368784  0.49998716  0.55384408     0.75000
C57         C  0.16039258  0.46127963  0.55219890     0.77400
Cd58       Cd  0.13030852  0.46551618  0.57602548     1.37500
O59         O  0.14171020  0.47976363  0.61762408    -0.57600
O60         O  0.16384718  0.47376806  0.56874570    -0.56400
C61         C  0.08986169  0.43841796  0.56949190     0.77400
O62         O  0.14290847  0.45052881  0.54661193    -0.58800
O63         O  0.12774539  0.44899586  0.61596788    -0.57200
O64         O  0.13326772  0.48664340  0.54083519    -0.57200
O65         O  0.09625989  0.45594317  0.57454940    -0.56400
O66         O  0.35689881  0.49955181  0.41879102    -0.57600
C67         C  0.32586867  0.46465254  0.36208156     0.75100
O68         O  0.33179025  0.43481624  0.42838057    -0.58700
C69         C  0.36273719  0.49815910  0.44009027     0.75000
C70         C  0.29844494  0.46021906  0.43968644     0.77400
Cd71       Cd  0.33265454  0.46494470  0.41485157     1.37500
O72         O  0.33844660  0.47950041  0.37319414    -0.57600
O73         O  0.30917799  0.47473321  0.42657872    -0.56400
C74         C  0.34684935  0.43815971  0.41674328     0.77400
O75         O  0.30320110  0.44739976  0.44105972    -0.58800
O76         O  0.31595409  0.45002562  0.37550456    -0.57200
O77         O  0.35481383  0.48148644  0.44944205    -0.57200
O78         O  0.35508383  0.45368144  0.40453305    -0.56400
O79         O  0.13490796  0.47583018  0.87461020    -0.57600
C80         C  0.13111346  0.49351513  0.94398656     0.75100
O81         O  0.09891435  0.42824463  0.92360743    -0.58700
C82         C  0.13434675  0.46172234  0.86334125     0.75000
C83         C  0.15625679  0.45522577  0.94023293     0.77400
Cd84       Cd  0.12715001  0.46070456  0.91637670     1.37500
O85         O  0.13524290  0.49473089  0.92110365    -0.57600
O86         O  0.16036536  0.46907481  0.92559442    -0.56400
C87         C  0.08650055  0.43324782  0.91975851     0.77400
O88         O  0.13857733  0.44370342  0.94377416    -0.58800
O89         O  0.12531419  0.47726589  0.95396650    -0.57200
O90         O  0.13062424  0.44725393  0.87657257    -0.57200
O91         O  0.09291226  0.45071014  0.91422081    -0.56400
O92         O  0.35596540  0.49123923  0.07361942    -0.57600
C93         C  0.32104222  0.46006652  0.12769983     0.75100
O94         O  0.29871930  0.44034728  0.04944436    -0.58700
C95         C  0.35837390  0.49164274  0.05037769     0.75000
C96         C  0.34361060  0.43277232  0.07414208     0.77400
Cd97       Cd  0.32814867  0.45853243  0.07538855     1.37500
O98         O  0.33107309  0.47509894  0.11504328    -0.57600
O99         O  0.35156131  0.44867208  0.08545255    -0.56400
C100        C  0.29346963  0.45278555  0.05123977     0.77400
O101        O  0.32798627  0.42832965  0.06321711    -0.58800
O102        O  0.31360505  0.44431779  0.11594152    -0.57200
O103        O  0.34675543  0.47668399  0.03857440    -0.57200
O104        O  0.30397795  0.46735244  0.06437700    -0.56400
O105        O  0.50240878  0.86311858  0.42548183    -0.57600
C106        C  0.53452969  0.86313091  0.36988699     0.75100
O107        O  0.56749027  0.89781557  0.42969002    -0.58700
C108        C  0.50233894  0.86516128  0.44879287     0.75000
C109        C  0.54022434  0.83941790  0.44742904     0.77400
Cd110      Cd  0.53543596  0.86889284  0.42309448     1.37500
O111        O  0.52011316  0.86113261  0.38184198    -0.57600
O112        O  0.52694370  0.83551511  0.43196028    -0.56400
C113        C  0.56144495  0.90962499  0.42801893     0.77400
O114        O  0.55176486  0.85709268  0.45123241    -0.58800
O115        O  0.54935341  0.86738393  0.38258595    -0.57200
O116        O  0.51734028  0.86824356  0.46025940    -0.57200
O117        O  0.54370629  0.90251371  0.42417666    -0.56400
O118        O  0.49945298  0.63911223  0.57706068    -0.57600
C119        C  0.53321814  0.66741768  0.63344723     0.75100
O120        O  0.56500587  0.66686150  0.56932941    -0.58700
C121        C  0.49953800  0.63615874  0.55399115     0.75000
C122        C  0.53889972  0.69987747  0.55897723     0.77400
Cd123      Cd  0.53351165  0.66421286  0.57994903     1.37500
O124        O  0.51854315  0.65571862  0.62132230    -0.57600
O125        O  0.52496373  0.68942203  0.57308219    -0.56400
C126        C  0.55942242  0.64926798  0.57307671     0.77400
O127        O  0.55073689  0.69414170  0.55498262    -0.58800
O128        O  0.54807974  0.67801173  0.62080210    -0.57200
O129        O  0.51527744  0.64642572  0.54279833    -0.57200
O130        O  0.54216106  0.63894322  0.57977517    -0.56400
O131        O  0.52411193  0.86327454  0.12255105    -0.57600
C132        C  0.50410329  0.85920530  0.05600468     0.75100
O133        O  0.57065171  0.89508787  0.07822520    -0.58700
C134        C  0.53651462  0.86148390  0.13482810     0.75000
C135        C  0.54467500  0.83665193  0.05743233     0.77400
Cd136      Cd  0.53834303  0.86553655  0.08122982     1.37500
O137        O  0.50366201  0.85393852  0.07828738    -0.57600
O138        O  0.53165939  0.83247726  0.07342844    -0.56400
C139        C  0.56411781  0.90645789  0.07583539     0.77400
O140        O  0.55523021  0.85436425  0.05266787    -0.58800
O141        O  0.52021736  0.86666288  0.04520182    -0.57200
O142        O  0.54975138  0.86130506  0.12233400    -0.57200
O143        O  0.54609463  0.89884312  0.07575744    -0.56400
O144        O  0.51888870  0.65228959  0.88040377    -0.57600
C145        C  0.49887620  0.63286160  0.94611702     0.75100
O146        O  0.56583521  0.66344810  0.92721056    -0.58700
C147        C  0.53300655  0.66524699  0.86856281     0.75000
C148        C  0.54073529  0.69638804  0.94501075     0.77400
Cd149      Cd  0.53378036  0.66088659  0.92184632     1.37500
O150        O  0.49999531  0.63510917  0.92279752    -0.57600
O151        O  0.52922109  0.68891383  0.92704047    -0.56400
C152        C  0.55946668  0.64550187  0.92695345     0.77400
O153        O  0.54922909  0.68755323  0.95218486    -0.58800
O154        O  0.51372203  0.64408933  0.95838225    -0.57200
O155        O  0.54744343  0.67655466  0.88141780    -0.57200
O156        O  0.54155083  0.63503650  0.92455110    -0.56400
O157        O  0.85786396  0.35441346  0.92458107    -0.57600
C158        C  0.85837420  0.32250408  0.86702697     0.75100
O159        O  0.89484044  0.32722990  0.93447314    -0.58700
C160        C  0.86326428  0.35857891  0.94688704     0.75000
C161        C  0.83727162  0.29358192  0.94375560     0.77400
Cd162      Cd  0.86608648  0.32859287  0.92004189     1.37500
O163        O  0.85580549  0.33450359  0.87923415    -0.57600
O164        O  0.83297267  0.30426556  0.93134472    -0.56400
C165        C  0.90672505  0.34138770  0.92158085     0.77400
O166        O  0.85490695  0.29877251  0.94470035    -0.58800
O167        O  0.86405792  0.31287369  0.87939651    -0.57200
O168        O  0.87017886  0.34906983  0.95675797    -0.57200
O169        O  0.89978948  0.34944931  0.90833385    -0.56400
O170        O  0.63945352  0.13514244  0.08005127    -0.57600
C171        C  0.67151787  0.13500323  0.13567469     0.75100
O172        O  0.66909914  0.09908620  0.07823584    -0.58700
C173        C  0.63725712  0.13271407  0.05678904     0.75000
C174        C  0.70103014  0.15633027  0.05835191     0.77400
Cd175      Cd  0.66616365  0.12830538  0.08276055     1.37500
O176        O  0.66148807  0.14006586  0.12310384    -0.57600
O177        O  0.69363267  0.16070185  0.07610076    -0.56400
C178        C  0.65125419  0.08737830  0.07964767     0.77400
O179        O  0.69254340  0.13879892  0.05213931    -0.58800
O180        O  0.67928370  0.12710803  0.12371445    -0.57200
O181        O  0.64878550  0.12887555  0.04564562    -0.57200
O182        O  0.64060905  0.09465120  0.08250435    -0.56400
O183        O  0.85756309  0.33606030  0.61943715    -0.57600
C184        C  0.86762288  0.36065208  0.55097008     0.75100
O185        O  0.89811227  0.32870580  0.56760307    -0.58700
C186        C  0.86182526  0.32546064  0.63215736     0.75000
C187        C  0.83997453  0.29544183  0.55727173     0.77400
Cd188      Cd  0.86933397  0.33091172  0.57919424     1.37500
O189        O  0.86476882  0.35890544  0.57417976    -0.57600
O190        O  0.83603368  0.30657984  0.56926682    -0.56400
C191        C  0.91006606  0.34515410  0.57596024     0.77400
O192        O  0.85758882  0.30061675  0.55545342    -0.58800
O193        O  0.87073578  0.34830612  0.54067830    -0.57200
O194        O  0.86918505  0.31710794  0.62032365    -0.57200
O195        O  0.90310565  0.35453533  0.58606589    -0.56400
O196        O  0.66492903  0.14417194  0.38304967    -0.57600
C197        C  0.63729649  0.13649567  0.44709706     0.75100
O198        O  0.66801895  0.10150113  0.43346537    -0.58700
C199        C  0.67190395  0.13583874  0.37039637     0.75000
C200        C  0.70170887  0.15749733  0.44776358     0.77400
Cd201      Cd  0.66619912  0.13056157  0.42348019     1.37500
O202        O  0.63998885  0.13829849  0.42387685    -0.57600
O203        O  0.69521222  0.16225162  0.42937232    -0.56400
C204        C  0.65051802  0.08978558  0.42905590     0.77400
O205        O  0.69204048  0.14015791  0.45459280    -0.58800
O206        O  0.64821158  0.13240721  0.45927548    -0.57200
O207        O  0.67679158  0.12540033  0.38238903    -0.57200
O208        O  0.64049178  0.09697732  0.42185068    -0.56400
O209        O  0.50054301  0.13854007  0.92135743    -0.57600
C210        C  0.46672045  0.13676589  0.86410120     0.75100
O211        O  0.43650640  0.09956296  0.93086946    -0.58700
C212        C  0.49887182  0.13141856  0.94280718     0.75000
C213        C  0.46039818  0.15758601  0.94169013     0.77400
Cd214      Cd  0.46614775  0.12875947  0.91679196     1.37500
O215        O  0.48108736  0.13784080  0.87518859    -0.57600
O216        O  0.47520777  0.16179546  0.92899891    -0.56400
C217        C  0.43994401  0.08771631  0.91970765     0.77400
O218        O  0.44791850  0.13991391  0.94275373    -0.58800
O219        O  0.45205959  0.13214325  0.87739277    -0.57200
O220        O  0.48225600  0.12342071  0.95218199    -0.57200
O221        O  0.45504739  0.09489117  0.90669574    -0.56400
O222        O  0.49860975  0.35595333  0.07395840    -0.57600
C223        C  0.46638105  0.32633526  0.12929893     0.75100
O224        O  0.43258974  0.32825389  0.07020823    -0.58700
C225        C  0.49910966  0.35832894  0.05069153     0.75000
C226        C  0.45735855  0.29484550  0.05337911     0.77400
Cd227      Cd  0.46455543  0.33068279  0.07614312     1.37500
O228        O  0.48106407  0.33747253  0.11668761    -0.57600
O229        O  0.46805603  0.30200662  0.07212869    -0.56400
C230        C  0.43852561  0.34594638  0.07365812     0.77400
O231        O  0.44940732  0.30397142  0.04529252    -0.58800
O232        O  0.45093121  0.31683498  0.11724685    -0.57200
O233        O  0.48366344  0.34779316  0.03910785    -0.57200
O234        O  0.45628492  0.35636896  0.07767725    -0.56400
O235        O  0.47857475  0.14376988  0.61676226    -0.57600
C236        C  0.49692536  0.13565381  0.55368502     0.75100
O237        O  0.43002414  0.10270504  0.57335160    -0.58700
C238        C  0.46337034  0.13734817  0.62947235     0.75000
C239        C  0.45706959  0.16052111  0.55115752     0.77400
Cd240      Cd  0.46260357  0.13155815  0.57614637     1.37500
O241        O  0.49421971  0.13326680  0.57690412    -0.57600
O242        O  0.46950300  0.16464022  0.56794430    -0.56400
C243        C  0.43587761  0.09094946  0.56932998     0.77400
O244        O  0.44676778  0.14284807  0.54609809    -0.58800
O245        O  0.48396280  0.13641007  0.54128435    -0.57200
O246        O  0.44781766  0.12858456  0.61749989    -0.57200
O247        O  0.45382976  0.09807891  0.56774628    -0.56400
O248        O  0.48267261  0.34169835  0.37595997    -0.57600
C249        C  0.50012858  0.36533072  0.44397954     0.75100
O250        O  0.43616825  0.33449150  0.42867746    -0.58700
C251        C  0.46775638  0.33000987  0.36415967     0.75000
C252        C  0.46093221  0.30107515  0.43982307     0.77400
Cd253      Cd  0.46711420  0.33647450  0.41706405     1.37500
O254        O  0.50115650  0.36214550  0.42117264    -0.57600
O255        O  0.47454576  0.31058164  0.42483817    -0.56400
C256        C  0.44033259  0.35072640  0.41978736     0.77400
O257        O  0.44994538  0.30779125  0.44416315    -0.58800
O258        O  0.48395718  0.35521368  0.45416274    -0.57200
O259        O  0.45252598  0.32115679  0.37683558    -0.57200
O260        O  0.45672025  0.36019871  0.40987129    -0.56400
O261        O  0.64644510  0.49718680  0.92408868    -0.57600
C262        C  0.67429982  0.53298198  0.86858559     0.75100
O263        O  0.67004523  0.56340365  0.93022792    -0.58700
C264        C  0.64006071  0.49751467  0.94546172     0.75000
C265        C  0.70360025  0.53953330  0.94734899     0.77400
Cd266      Cd  0.66880656  0.53226228  0.92170124     1.37500
O267        O  0.66295062  0.51766211  0.87996235    -0.57600
O268        O  0.69665782  0.52779220  0.92951343    -0.56400
C269        C  0.65255695  0.55726114  0.92515601     0.77400
O270        O  0.69473984  0.54831016  0.95305607    -0.58800
O271        O  0.68357073  0.54781749  0.88187774    -0.57200
O272        O  0.64723686  0.51377818  0.95584404    -0.57200
O273        O  0.64295528  0.53989583  0.91841355    -0.56400
O274        O  0.86211412  0.49818165  0.08218540    -0.57600
C275        C  0.86385921  0.53178551  0.13735865     0.75100
O276        O  0.89727318  0.56294563  0.07211325    -0.58700
C277        C  0.86274439  0.49720036  0.05879994     0.75000
C278        C  0.83954424  0.53859444  0.06286205     0.77400
Cd279      Cd  0.86865696  0.53170596  0.08409237     1.37500
O280        O  0.86012298  0.51668172  0.12557244    -0.57600
O281        O  0.83559858  0.52591241  0.07934337    -0.56400
C282        C  0.90942715  0.55835049  0.07928371     0.77400
O283        O  0.85698660  0.54831125  0.05652358    -0.58800
O284        O  0.86938038  0.54681774  0.12444738    -0.57200
O285        O  0.86579187  0.51207594  0.04695024    -0.57200
O286        O  0.90267391  0.54160296  0.08802764    -0.56400
O287        O  0.66395881  0.52072871  0.62180937    -0.57600
C288        C  0.63940549  0.50001564  0.55801978     0.75100
O289        O  0.66907079  0.56683000  0.57228295    -0.58700
C290        C  0.67339427  0.53629030  0.63368228     0.75000
C291        C  0.70280127  0.54298221  0.55617959     0.77400
Cd292      Cd  0.66758325  0.53557290  0.58060739     1.37500
O293        O  0.63994218  0.50250673  0.58127416    -0.57600
O294        O  0.69627725  0.53214498  0.57498459    -0.56400
C295        C  0.65113596  0.56022119  0.57330144     0.77400
O296        O  0.69335814  0.55084594  0.54906289    -0.58800
O297        O  0.65222677  0.51371605  0.54543630    -0.57200
O298        O  0.68062844  0.55155981  0.62091468    -0.57200
O299        O  0.64102711  0.54244696  0.57770785    -0.56400
O300        O  0.86804486  0.50429225  0.42204030    -0.57600
C301        C  0.86410921  0.53322146  0.37200501     0.75100
O302        O  0.85757326  0.55523947  0.44396208    -0.58700
C303        C  0.86935174  0.50228413  0.44512447     0.75000
C304        C  0.91101533  0.56741478  0.43023050     0.77400
Cd305      Cd  0.87131655  0.53663671  0.42467693     1.37500
O306        O  0.87037054  0.52357817  0.38315131    -0.57600
O307        O  0.90235836  0.56320226  0.40965923    -0.56400
C308        C  0.84063385  0.54127198  0.44595682     0.77400
O309        O  0.90125059  0.55773009  0.44868406    -0.58800
O310        O  0.86067632  0.54413692  0.38537409    -0.57200
O311        O  0.87135807  0.51602775  0.45870597    -0.57200
O312        O  0.83792777  0.52521213  0.43831593    -0.56400
C313        C  0.72021714  0.54590163  0.54293291    -0.03100
C314        C  0.73100147  0.53787829  0.55225556    -0.08900
C315        C  0.74671104  0.53954427  0.53896529    -0.16500
C316        C  0.75186467  0.54919684  0.51614912     0.25600
C317        C  0.74145566  0.55758268  0.50696072    -0.18200
C318        C  0.72576030  0.55599199  0.52028588    -0.07100
C319        C  0.76737218  0.54979541  0.50190779    -0.13600
C320        C  0.78009334  0.54923505  0.49066803    -0.13300
C321        C  0.79510771  0.54752812  0.47829173     0.25500
C322        C  0.79144890  0.52966529  0.46920906    -0.18700
C323        C  0.80621067  0.52766735  0.45847310    -0.07200
C324        C  0.82488515  0.54353104  0.45667929    -0.03200
C325        C  0.82837391  0.56149823  0.46547007    -0.08600
C326        C  0.81358355  0.56346316  0.47622145    -0.16200
H327        H  0.72711824  0.53005359  0.56963900     0.12000
H328        H  0.75464020  0.53299173  0.54629264     0.11200
H329        H  0.74527499  0.56508196  0.48933263     0.11200
H330        H  0.71772343  0.56230296  0.51261195     0.11700
H331        H  0.77724019  0.51721101  0.47073682     0.11800
H332        H  0.80304686  0.51366097  0.45181223     0.11700
H333        H  0.84257794  0.57398517  0.46429045     0.11900
H334        H  0.81662701  0.57735826  0.48322058     0.10700
C335        C  0.86206985  0.53187237  0.16471135    -0.03100
C336        C  0.85594041  0.51488274  0.17844239    -0.08900
C337        C  0.85463640  0.51502348  0.20433058    -0.16500
C338        C  0.85943452  0.53211956  0.21684051     0.25600
C339        C  0.86551758  0.54909475  0.20333265    -0.18200
C340        C  0.86682438  0.54898498  0.17742400    -0.07100
C341        C  0.85852051  0.53227792  0.24354571    -0.13600
C342        C  0.85824597  0.53215667  0.26594187    -0.13300
C343        C  0.85874357  0.53177006  0.29265645     0.25500
C344        C  0.85324476  0.54286246  0.30678782    -0.18700
C345        C  0.85457911  0.54304498  0.33271304    -0.07200
C346        C  0.86144652  0.53212408  0.34477079    -0.03200
C347        C  0.86657993  0.52074875  0.33043313    -0.08600
C348        C  0.86525654  0.52060665  0.30455818    -0.16200
H349        H  0.85224214  0.50150253  0.16919149     0.12000
H350        H  0.84998702  0.50181517  0.21459744     0.11200
H351        H  0.86934334  0.56242560  0.21282473     0.11200
H352        H  0.87165326  0.56230271  0.16736082     0.11700
H353        H  0.84818020  0.55156089  0.29776653     0.11800
H354        H  0.85053206  0.55194558  0.34327608     0.11700
H355        H  0.87193756  0.51221003  0.33918173     0.11900
H356        H  0.86955155  0.51197008  0.29380907     0.10700
C357        C  0.67547855  0.53658747  0.66100718    -0.03100
C358        C  0.66668135  0.51933292  0.67461217    -0.08900
C359        C  0.66786314  0.51960315  0.70051822    -0.16500
C360        C  0.67785943  0.53708692  0.71319218     0.25600
C361        C  0.68683428  0.55434108  0.69980552    -0.18200
C362        C  0.68566566  0.55410523  0.67385749    -0.07100
C363        C  0.67862384  0.53720936  0.73992196    -0.13600
C364        C  0.67868443  0.53665683  0.76230890    -0.13300
C365        C  0.67819076  0.53554656  0.78902240     0.25500
C366        C  0.68964507  0.55195197  0.80321082    -0.18700
C367        C  0.68869566  0.55101822  0.82914523    -0.07200
C368        C  0.67624241  0.53364088  0.84122681    -0.03200
C369        C  0.66501528  0.51713868  0.82683736    -0.08600
C370        C  0.66598333  0.51810815  0.80089522    -0.16200
H371        H  0.65870253  0.50562962  0.66525599     0.12000
H372        H  0.66085381  0.50616248  0.71068361     0.11200
H373        H  0.69460531  0.56796266  0.70941524     0.11200
H374        H  0.69254779  0.56762099  0.66388407     0.11700
H375        H  0.69915468  0.56552038  0.79422789     0.11800
H376        H  0.69749117  0.56396359  0.83972676     0.11700
H377        H  0.65526668  0.50356756  0.83560694     0.11900
H378        H  0.65705949  0.50531439  0.79010360     0.10700
C379        C  0.72088605  0.54252643  0.96097200    -0.03100
C380        C  0.73079310  0.53311255  0.95329998    -0.08900
C381        C  0.74656535  0.53516594  0.96677247    -0.16500
C382        C  0.75266937  0.54661883  0.98812832     0.25600
C383        C  0.74306942  0.55627461  0.99573213    -0.18200
C384        C  0.72729537  0.55427824  0.98222171    -0.07100
C385        C  0.76834643  0.54782214  0.00254912    -0.13600
C386        C  0.78109442  0.54764840  0.01417647    -0.13300
C387        C  0.79588219  0.54615718  0.02743164     0.25500
C388        C  0.79088503  0.53181193  0.04539319    -0.18700
C389        C  0.80511258  0.52958138  0.05729351    -0.07200
C390        C  0.82456451  0.54164482  0.05130586    -0.03200
C391        C  0.82948970  0.55622005  0.03352565    -0.08600
C392        C  0.81523493  0.55844946  0.02167633    -0.16200
H393        H  0.72622050  0.52397288  0.93702267     0.12000
H394        H  0.75384201  0.52759809  0.96071294     0.11200
H395        H  0.74761911  0.56514973  0.01225445     0.11200
H396        H  0.71994287  0.56167692  0.98861154     0.11700
H397        H  0.77595971  0.52216084  0.04995167     0.11800
H398        H  0.80086614  0.51821525  0.07086747     0.11700
H399        H  0.84434405  0.56573475  0.02852462     0.11900
H400        H  0.81929094  0.56956273  0.00776230     0.10700
C401        C  0.62431517  0.48235751  0.54604846    -0.03100
C402        C  0.62467668  0.47986854  0.52025209    -0.08900
C403        C  0.60962376  0.46398559  0.50853446    -0.16500
C404        C  0.59402134  0.45039842  0.52241473     0.25600
C405        C  0.59376111  0.45248437  0.54820156    -0.18200
C406        C  0.60884909  0.46835554  0.55998841    -0.07100
C407        C  0.57796943  0.43483528  0.50995231    -0.13600
C408        C  0.56450072  0.42239813  0.49879695    -0.13300
C409        C  0.54840178  0.40798841  0.48503009     0.25500
C410        C  0.53079967  0.39663535  0.49691398    -0.18700
C411        C  0.51510338  0.38274880  0.48352738    -0.07200
C412        C  0.51681199  0.38003432  0.45804553    -0.03200
C413        C  0.53455071  0.39152099  0.44622925    -0.08600
C414        C  0.55023960  0.40542719  0.45966069    -0.16200
H415        H  0.63640821  0.49040287  0.50904218     0.12000
H416        H  0.60996837  0.46251044  0.48857538     0.11200
H417        H  0.58173672  0.44205069  0.55912616     0.11200
H418        H  0.60817836  0.46991861  0.57987081     0.11700
H419        H  0.52919850  0.39852720  0.51651412     0.11800
H420        H  0.50162296  0.37413302  0.49313522     0.11700
H421        H  0.53628612  0.38978044  0.42663293     0.11900
H422        H  0.56379274  0.41418334  0.45025957     0.10700
C423        C  0.45816610  0.28321662  0.45169475    -0.03100
C424        C  0.44336075  0.27329042  0.46904783    -0.08900
C425        C  0.44109527  0.25667941  0.48067676    -0.16500
C426        C  0.45355514  0.24974925  0.47509011     0.25600
C427        C  0.46823306  0.25946528  0.45768900    -0.18200
C428        C  0.47053440  0.27607617  0.44606423    -0.07100
C429        C  0.45173657  0.23307539  0.48775698    -0.13600
C430        C  0.45119494  0.21970375  0.49877418    -0.13300
C431        C  0.45201773  0.20465831  0.51242183     0.25500
C432        C  0.46622848  0.20950954  0.53044025    -0.18700
C433        C  0.46768885  0.19512918  0.54319640    -0.07200
C434        C  0.45495691  0.17561884  0.53809863    -0.03200
C435        C  0.44056159  0.17081322  0.52014053    -0.08600
C436        C  0.43909806  0.18526258  0.50740090    -0.16200
H437        H  0.43363419  0.27845174  0.47378867     0.12000
H438        H  0.42972776  0.24933908  0.49418057     0.11200
H439        H  0.47801496  0.25430037  0.45326619     0.11200
H440        H  0.48207273  0.28339725  0.43279832     0.11700
H441        H  0.47632882  0.22444877  0.53447704     0.11800
H442        H  0.47893519  0.19930369  0.55688295     0.11700
H443        H  0.43054946  0.15592123  0.51582162     0.11900
H444        H  0.42804561  0.18131208  0.49347428     0.10700
C445        C  0.62490069  0.47996915  0.95761627    -0.03100
C446        C  0.61769907  0.48117687  0.98093517    -0.08900
C447        C  0.60300120  0.46475054  0.99223620    -0.16500
C448        C  0.59531591  0.44690074  0.98043259     0.25600
C449        C  0.60247887  0.44551345  0.95729051    -0.18200
C450        C  0.61719629  0.46195730  0.94592038    -0.07100
C451        C  0.57972489  0.43019171  0.99185588    -0.13600
C452        C  0.56626043  0.41676190  0.00175022    -0.13300
C453        C  0.54971814  0.40140832  0.01377685     0.25500
C454        C  0.53279780  0.39042420  0.00033576    -0.18700
C455        C  0.51639013  0.37617398  0.01225738    -0.07200
C456        C  0.51669266  0.37279175  0.03783244    -0.03200
C457        C  0.53383575  0.38371533  0.05112896    -0.08600
C458        C  0.55024182  0.39793282  0.03915605    -0.16200
H459        H  0.62331162  0.49484791  0.99036542     0.12000
H460        H  0.59752227  0.46600173  0.01010723     0.11200
H461        H  0.59658508  0.43177097  0.94795260     0.11200
H462        H  0.62244299  0.46060499  0.92794211     0.11700
H463        H  0.53221318  0.39303947  0.98070047     0.11800
H464        H  0.50339906  0.36800344  0.00154289     0.11700
H465        H  0.53450767  0.38142074  0.07083291     0.11900
H466        H  0.56324080  0.40638674  0.04975787     0.10700
C467        C  0.46715460  0.32480741  0.15665298    -0.03100
C468        C  0.48445372  0.33590348  0.16959051    -0.08900
C469        C  0.48494982  0.33511326  0.19554359    -0.16500
C470        C  0.46819372  0.32321431  0.20891021     0.25600
C471        C  0.45097308  0.31198025  0.19614563    -0.18200
C472        C  0.45044480  0.31274482  0.17021067    -0.07100
C473        C  0.46853770  0.32283180  0.23570618    -0.13600
C474        C  0.46857680  0.32285122  0.25814735    -0.13300
C475        C  0.46849644  0.32358168  0.28493627     0.25500
C476        C  0.45119620  0.31379006  0.29806796    -0.18700
C477        C  0.45097846  0.31550725  0.32393385    -0.07200
C478        C  0.46807775  0.32713066  0.33700599    -0.03200
C479        C  0.48544309  0.33652954  0.32373126    -0.08600
C480        C  0.48563443  0.33475440  0.29789024    -0.16200
H481        H  0.49754600  0.34535795  0.15968547     0.12000
H482        H  0.49836410  0.34390843  0.20518736     0.11200
H483        H  0.43790180  0.30274247  0.20625888     0.11200
H484        H  0.43690573  0.30406579  0.16079491     0.11700
H485        H  0.43783373  0.30510075  0.28827825     0.11800
H486        H  0.43738868  0.30806667  0.33363032     0.11700
H487        H  0.49884895  0.34551568  0.33327124     0.11900
H488        H  0.49912005  0.34239956  0.28796573     0.10700
C489        C  0.46695934  0.14031504  0.83703208    -0.03100
C490        C  0.45072438  0.13883469  0.82509503    -0.08900
C491        C  0.45048786  0.14074345  0.79925784    -0.16500
C492        C  0.46646607  0.14418800  0.78500732     0.25600
C493        C  0.48290733  0.14631184  0.79683994    -0.18200
C494        C  0.48317996  0.14442608  0.82265922    -0.07100
C495        C  0.46568031  0.14455776  0.75822636    -0.13600
C496        C  0.46505827  0.14409131  0.73579453    -0.13300
C497        C  0.46457494  0.14296113  0.70901131     0.25500
C498        C  0.48171209  0.15071459  0.69549885    -0.18700
C499        C  0.48132751  0.14911933  0.66959639    -0.07200
C500        C  0.46376173  0.13969760  0.65681004    -0.03200
C501        C  0.44659537  0.13209389  0.67049088    -0.08600
C502        C  0.44701397  0.13371021  0.69641327    -0.16200
H503        H  0.43804711  0.13576219  0.83565655     0.12000
H504        H  0.43768152  0.13909031  0.79034976     0.11200
H505        H  0.49537718  0.14899718  0.78605340     0.11200
H506        H  0.49592179  0.14572366  0.83129613     0.11700
H507        H  0.49539762  0.15786505  0.70501065     0.11800
H508        H  0.49477889  0.15509007  0.65960283     0.11700
H509        H  0.43284833  0.12473285  0.66118885     0.11900
H510        H  0.43364687  0.12760406  0.70663286     0.10700
C511        C  0.45477018  0.27706520  0.04139102    -0.03100
C512        C  0.44305100  0.26935167  0.02030935    -0.08900
C513        C  0.44173076  0.25326847  0.00820331    -0.16500
C514        C  0.45208611  0.24469644  0.01700721     0.25600
C515        C  0.46343668  0.25205481  0.03828020    -0.18200
C516        C  0.46475503  0.26807898  0.05040132    -0.07100
C517        C  0.45172927  0.22884946  0.00381113    -0.13600
C518        C  0.45237948  0.21604707  0.99283783    -0.13300
C519        C  0.45409260  0.20127208  0.97972242     0.25500
C520        C  0.46965101  0.20634286  0.96378012    -0.18700
C521        C  0.47161600  0.19212037  0.95134492    -0.07200
C522        C  0.45800370  0.17256519  0.95461476    -0.03200
C523        C  0.44234991  0.16756317  0.97056803    -0.08600
C524        C  0.44043931  0.18183500  0.98306703    -0.16200
H525        H  0.43518940  0.27594329  0.01293239     0.12000
H526        H  0.43289966  0.24773064  0.99174992     0.11200
H527        H  0.47153235  0.24558684  0.04529393     0.11200
H528        H  0.47389345  0.27365347  0.06657781     0.11700
H529        H  0.48033708  0.22131066  0.96104249     0.11800
H530        H  0.48382396  0.19644028  0.93919925     0.11700
H531        H  0.43166915  0.15263299  0.97351481     0.11900
H532        H  0.42835384  0.17770552  0.99539242     0.10700
C533        C  0.62204542  0.13865721  0.45936632    -0.03100
C534        C  0.61020972  0.14349079  0.44557304    -0.08900
C535        C  0.59520636  0.14457562  0.45717349    -0.16500
C536        C  0.59189310  0.14083383  0.48263750     0.25600
C537        C  0.60378432  0.13630336  0.49652164    -0.18200
C538        C  0.61877722  0.13524173  0.48499571    -0.07100
C539        C  0.57599738  0.14105191  0.49452779    -0.13600
C540        C  0.56254675  0.14060377  0.50501081    -0.13300
C541        C  0.54626766  0.13962362  0.51746025     0.25500
C542        C  0.54427474  0.13714403  0.54325183    -0.18700
C543        C  0.52827700  0.13597689  0.55522272    -0.07200
C544        C  0.51411318  0.13726763  0.54145097    -0.03200
C545        C  0.51629368  0.13979024  0.51557787    -0.08600
C546        C  0.53225581  0.14094901  0.50368314    -0.16200
H547        H  0.61239720  0.14619212  0.42580596     0.12000
H548        H  0.58606461  0.14807916  0.44625472     0.11200
H549        H  0.60132510  0.13336259  0.51623174     0.11200
H550        H  0.62763657  0.13146834  0.49609109     0.11700
H551        H  0.55504177  0.13605788  0.55407893     0.11800
H552        H  0.52694505  0.13398219  0.57514981     0.11700
H553        H  0.50560135  0.14078961  0.50446870     0.11900
H554        H  0.53363982  0.14282558  0.48372289     0.10700
C555        C  0.86876331  0.48496451  0.45568305    -0.03100
C556        C  0.86995287  0.48318168  0.48149766    -0.08900
C557        C  0.86988396  0.46709631  0.49155438    -0.16500
C558        C  0.86863713  0.45255825  0.47598610     0.25600
C559        C  0.86730303  0.45411667  0.45025221    -0.18200
C560        C  0.86735163  0.47021762  0.44013424    -0.07100
C561        C  0.86872449  0.43612320  0.48661996    -0.13600
C562        C  0.86869599  0.42269552  0.49674492    -0.13300
C563        C  0.86836952  0.40700079  0.51016670     0.25500
C564        C  0.87299507  0.39434318  0.49823701    -0.18700
C565        C  0.87258440  0.37911319  0.51143540    -0.07200
C566        C  0.86759027  0.37641092  0.53675872    -0.03200
C567        C  0.86299315  0.38921054  0.54856744    -0.08600
C568        C  0.86336348  0.40437470  0.53533960    -0.16200
H569        H  0.87104064  0.49428465  0.49395266     0.12000
H570        H  0.87087850  0.46603441  0.51147892     0.11200
H571        H  0.86629035  0.44293060  0.43800529     0.11200
H572        H  0.86642054  0.47119176  0.42019739     0.11700
H573        H  0.87690939  0.39623935  0.47877735     0.11800
H574        H  0.87628466  0.36953736  0.50187516     0.11700
H575        H  0.85914261  0.38752810  0.56804309     0.11900
H576        H  0.85976663  0.41408440  0.54477679     0.10700
C577        C  0.71938498  0.17153591  0.46081215    -0.03100
C578        C  0.72520175  0.16644173  0.48281350    -0.08900
C579        C  0.74131530  0.18013545  0.49585694    -0.16500
C580        C  0.75182287  0.19901773  0.48699081     0.25600
C581        C  0.74632546  0.20405895  0.46486746    -0.18200
C582        C  0.73022513  0.19044036  0.45186959    -0.07100
C583        C  0.76778035  0.21354936  0.50088295    -0.13600
C584        C  0.78076226  0.22679184  0.51174003    -0.13300
C585        C  0.79572054  0.24358732  0.52388958     0.25500
C586        C  0.81503297  0.24956039  0.51932749    -0.18700
C587        C  0.82949400  0.26636209  0.53034841    -0.07200
C588        C  0.82478376  0.27744450  0.54596987    -0.03200
C589        C  0.80534671  0.27128530  0.55050877    -0.08600
C590        C  0.79093245  0.25446409  0.53956547    -0.16200
H591        H  0.71710890  0.15200174  0.49016563     0.12000
H592        H  0.74540052  0.17607114  0.51299687     0.11200
H593        H  0.75432037  0.21862837  0.45785489     0.11200
H594        H  0.72611256  0.19478692  0.43498586     0.11700
H595        H  0.81891408  0.24132359  0.50710070     0.11800
H596        H  0.84432956  0.27077621  0.52646257     0.11700
H597        H  0.80127031  0.27950496  0.56245903     0.11900
H598        H  0.77604793  0.25005073  0.54312916     0.10700
C599        C  0.62179005  0.13378134  0.04335766    -0.03100
C600        C  0.60925299  0.13830019  0.05600408    -0.08900
C601        C  0.59402600  0.13828215  0.04343803    -0.16500
C602        C  0.59114550  0.13374110  0.01812597     0.25600
C603        C  0.60367986  0.12942518  0.00535873    -0.18200
C604        C  0.61892301  0.12947126  0.01786105    -0.07100
C605        C  0.57529999  0.13341606  0.00525673    -0.13600
C606        C  0.56205635  0.13312893  0.99438175    -0.13300
C607        C  0.54624484  0.13282318  0.98143804     0.25500
C608        C  0.54896472  0.14104113  0.95778552    -0.18700
C609        C  0.53359354  0.14073396  0.94521520    -0.07200
C610        C  0.51529652  0.13217211  0.95617850    -0.03200
C611        C  0.51271855  0.12399832  0.97997546    -0.08600
C612        C  0.52809560  0.12432813  0.99250160    -0.16200
H613        H  0.61108915  0.14164136  0.07563956     0.12000
H614        H  0.58442388  0.14167304  0.05349876     0.11200
H615        H  0.60160575  0.12591065  0.98576483     0.11200
H616        H  0.62830232  0.12587830  0.00764275     0.11700
H617        H  0.56295765  0.14766424  0.94904705     0.11800
H618        H  0.53600200  0.14710957  0.92690694     0.11700
H619        H  0.49879618  0.11728029  0.98888519     0.11900
H620        H  0.52581877  0.11793362  0.01079766     0.10700
C621        C  0.67384446  0.13793410  0.34306582    -0.03100
C622        C  0.66752044  0.14907357  0.33038862    -0.08900
C623        C  0.66854158  0.15043831  0.30448344    -0.16500
C624        C  0.67593053  0.14073809  0.29088387     0.25600
C625        C  0.68242118  0.12974660  0.30335139    -0.18200
C626        C  0.68139697  0.12834565  0.32928473    -0.07100
C627        C  0.67650429  0.14176131  0.26414493    -0.13600
C628        C  0.67663128  0.14205434  0.24173269    -0.13300
C629        C  0.67632332  0.14137385  0.21497810     0.25500
C630        C  0.68468929  0.13211448  0.20246028    -0.18700
C631        C  0.68346791  0.13038544  0.17659441    -0.07200
C632        C  0.67377885  0.13784645  0.16288719    -0.03200
C633        C  0.66574562  0.14748150  0.17555021    -0.08600
C634        C  0.66702548  0.14923624  0.20144006    -0.16200
H635        H  0.66158232  0.15657482  0.34047520     0.12000
H636        H  0.66343811  0.15895309  0.29505265     0.11200
H637        H  0.68813579  0.12214115  0.29301967     0.11200
H638        H  0.68632726  0.11962378  0.33851344     0.11700
H639        H  0.69190160  0.12595407  0.21273472     0.11800
H640        H  0.68980178  0.12289852  0.16737317     0.11700
H641        H  0.65823966  0.15341291  0.16548936     0.11900
H642        H  0.66048067  0.15642408  0.21091675     0.10700
C643        C  0.86156339  0.37367780  0.96062171    -0.03100
C644        C  0.85390443  0.38405274  0.94896330    -0.08900
C645        C  0.85247754  0.39844695  0.96181526    -0.16500
C646        C  0.85864357  0.40267808  0.98648926     0.25600
C647        C  0.86613040  0.39230432  0.99831973    -0.18200
C648        C  0.86757587  0.37789838  0.98549107    -0.07100
C649        C  0.85772733  0.41796083  0.99942460    -0.13600
C650        C  0.85745873  0.43113840  0.00990317    -0.13300
C651        C  0.85784508  0.44732700  0.02216384     0.25500
C652        C  0.85919609  0.46266923  0.00816893    -0.18700
C653        C  0.86047453  0.47878485  0.02005087    -0.07200
C654        C  0.86040088  0.47976585  0.04612399    -0.03200
C655        C  0.85868780  0.46414077  0.06003284    -0.08600
C656        C  0.85745779  0.44806529  0.04811896    -0.16200
H657        H  0.84911743  0.38111891  0.92988048     0.12000
H658        H  0.84667684  0.40638324  0.95241501     0.11200
H659        H  0.87097152  0.39543909  0.01736873     0.11200
H660        H  0.87349290  0.37012986  0.99500795     0.11700
H661        H  0.85951974  0.46228882  0.98809530     0.11800
H662        H  0.86175566  0.49057644  0.00882929     0.11700
H663        H  0.85860544  0.46447070  0.08011439     0.11900
H664        H  0.85643762  0.43630316  0.05918369     0.10700
C665        C  0.85532018  0.32024289  0.83975588    -0.03100
C666        C  0.85936465  0.30764277  0.82632282    -0.08900
C667        C  0.85771077  0.30655555  0.80038050    -0.16500
C668        C  0.85195655  0.31800029  0.78749674     0.25600
C669        C  0.84744772  0.33021293  0.80079598    -0.18200
C670        C  0.84910367  0.33133086  0.82670755    -0.07100
C671        C  0.85161176  0.31795734  0.76064365    -0.13600
C672        C  0.85223756  0.31860419  0.73819645    -0.13300
C673        C  0.85398146  0.31983340  0.71144189     0.25500
C674        C  0.84785642  0.33070241  0.69791381    -0.18700
C675        C  0.85018465  0.33237340  0.67206651    -0.07200
C676        C  0.85868153  0.32318180  0.65938692    -0.03200
C677        C  0.86463805  0.31217278  0.67309858    -0.08600
C678        C  0.86232328  0.31054551  0.69891239    -0.16200
H679        H  0.86418196  0.29891908  0.83581034     0.12000
H680        H  0.86128067  0.29706758  0.79034475     0.11200
H681        H  0.84300926  0.33917397  0.79109384     0.11200
H682        H  0.84586217  0.34115333  0.83648790     0.11700
H683        H  0.84143733  0.33801974  0.70735647     0.11800
H684        H  0.84548336  0.34097759  0.66204398     0.11700
H685        H  0.87127225  0.30497012  0.66390727     0.11900
H686        H  0.86718892  0.30214469  0.70913467     0.10700
C687        C  0.71845533  0.17100968  0.04544943    -0.03100
C688        C  0.72654422  0.16590575  0.02576859    -0.08900
C689        C  0.74267855  0.18001811  0.01315724    -0.16500
C690        C  0.75088019  0.19934805  0.02007740     0.25600
C691        C  0.74298262  0.20448885  0.03974744    -0.18200
C692        C  0.72690242  0.19043746  0.05236413    -0.07100
C693        C  0.76695669  0.21410337  0.00658900    -0.13600
C694        C  0.77982845  0.22725751  0.99545805    -0.13300
C695        C  0.79434452  0.24365183  0.98215609     0.25500
C696        C  0.81372357  0.24902973  0.98437840    -0.18700
C697        C  0.82773499  0.26519162  0.97169220    -0.07200
C698        C  0.82250430  0.27618183  0.95667922    -0.03200
C699        C  0.80300311  0.27065344  0.95457947    -0.08600
C700        C  0.78903945  0.25449940  0.96722498    -0.16200
H701        H  0.72031817  0.15106894  0.02000653     0.12000
H702        H  0.74862302  0.17588104  0.99787612     0.11200
H703        H  0.74915001  0.21939998  0.04518671     0.11200
H704        H  0.72097092  0.19482132  0.06739472     0.11700
H705        H  0.81800525  0.24078889  0.99596549     0.11800
H706        H  0.84264858  0.26915773  0.97375770     0.11700
H707        H  0.79853454  0.27885933  0.94323403     0.11900
H708        H  0.77409722  0.25051827  0.96544215     0.10700
C709        C  0.57205588  0.63702321  0.92919620    -0.03100
C710        C  0.56405205  0.61693812  0.92889781    -0.08900
C711        C  0.57577860  0.60873699  0.93061675    -0.16500
C712        C  0.59567634  0.62045489  0.93265999     0.25600
C713        C  0.60379124  0.64047126  0.93310895    -0.18200
C714        C  0.59205593  0.64872950  0.93139932    -0.07100
C715        C  0.60763739  0.61179183  0.93348441    -0.13600
C716        C  0.61662722  0.60343462  0.93309495    -0.13300
C717        C  0.62590890  0.59206494  0.93131361     0.25500
C718        C  0.64537443  0.59992565  0.93714628    -0.18700
C719        C  0.65418742  0.58869129  0.93505231    -0.07200
C720        C  0.64359884  0.56946744  0.92709889    -0.03200
C721        C  0.62408837  0.56176652  0.92123465    -0.08600
C722        C  0.61534009  0.57297980  0.92333669    -0.16200
H723        H  0.54870748  0.60753190  0.92721155     0.12000
H724        H  0.56932989  0.59324802  0.93015298     0.11200
H725        H  0.61919180  0.64969620  0.93458765     0.11200
H726        H  0.59861308  0.66422552  0.93165557     0.11700
H727        H  0.65371920  0.61469719  0.94328151     0.11800
H728        H  0.66922955  0.59500710  0.93971016     0.11700
H729        H  0.61553871  0.54702653  0.91506710     0.11900
H730        H  0.60028677  0.56674103  0.91870617     0.10700
C731        C  0.57658101  0.92750865  0.07353559    -0.03100
C732        C  0.56850891  0.93896158  0.06723143    -0.08900
C733        C  0.57988365  0.95894076  0.06623056    -0.16500
C734        C  0.59946966  0.96778538  0.07160968     0.25600
C735        C  0.60772944  0.95651077  0.07751581    -0.18200
C736        C  0.59635875  0.93644851  0.07839061    -0.07100
C737        C  0.61072862  0.98843909  0.07205511    -0.13600
C738        C  0.61891060  0.00574385  0.07304043    -0.13300
C739        C  0.62724129  0.02627537  0.07467080     0.25500
C740        C  0.64714148  0.03825522  0.07639992    -0.18700
C741        C  0.65505825  0.05820628  0.07799739    -0.07200
C742        C  0.64311370  0.06634737  0.07800664    -0.03200
C743        C  0.62314387  0.05417439  0.07641401    -0.08600
C744        C  0.61528700  0.03429057  0.07470790    -0.16200
H745        H  0.55332732  0.93248674  0.06331524     0.12000
H746        H  0.57333541  0.96750361  0.06168149     0.11200
H747        H  0.62288343  0.96322758  0.08178455     0.11200
H748        H  0.60292661  0.92798035  0.08334339     0.11700
H749        H  0.65651986  0.03218972  0.07646582     0.11800
H750        H  0.67048039  0.06724110  0.07928593     0.11700
H751        H  0.61358668  0.06002209  0.07635879     0.11900
H752        H  0.59986160  0.02515484  0.07343249     0.10700
C753        C  0.54705254  0.82155315  0.04476466    -0.03100
C754        C  0.53477305  0.80205895  0.05056219    -0.08900
C755        C  0.53621013  0.78765038  0.03781471    -0.16500
C756        C  0.54993132  0.79244609  0.01908917     0.25600
C757        C  0.56245607  0.81183275  0.01344735    -0.18200
C758        C  0.56104355  0.82630484  0.02621355    -0.07100
C759        C  0.55067416  0.77737847  0.00533882    -0.13600
C760        C  0.55022861  0.76411285  0.99413632    -0.13300
C761        C  0.54861791  0.74762592  0.98115390     0.25500
C762        C  0.55779810  0.73797105  0.99032206    -0.18700
C763        C  0.55548819  0.72145353  0.97836673    -0.07200
C764        C  0.54387747  0.71431826  0.95710256    -0.03200
C765        C  0.53490573  0.72424239  0.94783591    -0.08600
C766        C  0.53727045  0.74077246  0.95977911    -0.16200
H767        H  0.52386336  0.79791820  0.06472932     0.12000
H768        H  0.52642142  0.77271167  0.04237801     0.11200
H769        H  0.57312986  0.81574824  0.99899905     0.11200
H770        H  0.57070014  0.84118626  0.02131296     0.11700
H771        H  0.56657609  0.74308362  0.00689170     0.11800
H772        H  0.56256198  0.71412681  0.98595206     0.11700
H773        H  0.52589620  0.71912450  0.93148427     0.11900
H774        H  0.53005287  0.74806331  0.95252143     0.10700
C775        C  0.57215635  0.64100519  0.56992457    -0.03100
C776        C  0.59133748  0.65241324  0.56222493    -0.08900
C777        C  0.60316004  0.64429770  0.55947972    -0.16500
C778        C  0.59592934  0.62472588  0.56439501     0.25600
C779        C  0.57686553  0.61334003  0.57199290    -0.18200
C780        C  0.56507670  0.62138440  0.57473555    -0.07100
C781        C  0.60792584  0.61614191  0.56237273    -0.13600
C782        C  0.61657992  0.60743535  0.56219628    -0.13300
C783        C  0.62540778  0.59562675  0.56377659     0.25500
C784        C  0.61390880  0.57577270  0.56721787    -0.18700
C785        C  0.62229558  0.56426823  0.57013758    -0.07200
C786        C  0.64235674  0.57246149  0.56964322    -0.03200
C787        C  0.65382380  0.59238772  0.56586007    -0.08600
C788        C  0.64538838  0.60389702  0.56298078    -0.16200
H789        H  0.59718189  0.66755353  0.55839987     0.12000
H790        H  0.61792096  0.65328595  0.55366760     0.11200
H791        H  0.57111609  0.59821317  0.57593546     0.11200
H792        H  0.55038966  0.61220842  0.58070601     0.11700
H793        H  0.59843732  0.56919981  0.56796055     0.11800
H794        H  0.61307289  0.54897696  0.57296207     0.11700
H795        H  0.66930420  0.59909739  0.56537472     0.11900
H796        H  0.65444816  0.61925101  0.56042872     0.10700
C797        C  0.53299321  0.66842006  0.66086585    -0.03100
C798        C  0.54966565  0.68108512  0.67404010    -0.08900
C799        C  0.54950259  0.68156485  0.70001064    -0.16500
C800        C  0.53269356  0.66942154  0.71311209     0.25600
C801        C  0.51600703  0.65687449  0.70013109    -0.18200
C802        C  0.51613825  0.65636349  0.67418212    -0.07100
C803        C  0.53264589  0.66957592  0.73985820    -0.13600
C804        C  0.53261034  0.66937583  0.76225895    -0.13300
C805        C  0.53255090  0.66873301  0.78899410     0.25500
C806        C  0.54867647  0.68196464  0.80240791    -0.18700
C807        C  0.54876802  0.68103490  0.82835696    -0.07200
C808        C  0.53270462  0.66681445  0.84119972    -0.03200
C809        C  0.51650705  0.65369221  0.82757215    -0.08600
C810        C  0.51644664  0.65464893  0.80164648    -0.16200
H811        H  0.56286132  0.69050864  0.66429084     0.12000
H812        H  0.56250804  0.69131030  0.70986900     0.11200
H813        H  0.50291779  0.64738448  0.71007365     0.11200
H814        H  0.50309056  0.64644564  0.66455819     0.11700
H815        H  0.56123957  0.69292201  0.79280107     0.11800
H816        H  0.56144899  0.69130025  0.83833576     0.11700
H817        H  0.50393367  0.64255876  0.83693297     0.11900
H818        H  0.50390343  0.64432972  0.79147460     0.10700
C819        C  0.57418699  0.93059554  0.43034815    -0.03100
C820        C  0.56632526  0.94279117  0.43011888    -0.08900
C821        C  0.57815076  0.96263307  0.43222850    -0.16500
C822        C  0.59798392  0.97058578  0.43457107     0.25600
C823        C  0.60600532  0.95860690  0.43471244    -0.18200
C824        C  0.59415220  0.93866983  0.43266009    -0.07100
C825        C  0.60986626  0.99108304  0.43648959    -0.13600
C826        C  0.61819292  0.00837449  0.43717265    -0.13300
C827        C  0.62628630  0.02886413  0.43634023     0.25500
C828        C  0.64538830  0.04118406  0.44313298    -0.18700
C829        C  0.65330662  0.06109337  0.44099685    -0.07200
C830        C  0.64216203  0.06883248  0.43204743    -0.03200
C831        C  0.62288728  0.05633089  0.42574498    -0.08600
C832        C  0.61502831  0.03648272  0.42786527    -0.16200
H833        H  0.55100608  0.93700151  0.42834425     0.12000
H834        H  0.57181703  0.97178605  0.43201007     0.11200
H835        H  0.62137310  0.96465755  0.43641567     0.11200
H836        H  0.60057366  0.92960657  0.43280299     0.11700
H837        H  0.65420722  0.03541173  0.44973468     0.11800
H838        H  0.66817040  0.07040782  0.44610827     0.11700
H839        H  0.61393888  0.06187155  0.41889899     0.11900
H840        H  0.60021619  0.02705383  0.42257911     0.10700
C841        C  0.53409782  0.86088964  0.34256957    -0.03100
C842        C  0.54921310  0.86044688  0.33003409    -0.08900
C843        C  0.54898623  0.85891191  0.30412085    -0.16500
C844        C  0.53372366  0.85791042  0.29041825     0.25600
C845        C  0.51857144  0.85822028  0.30278296    -0.18200
C846        C  0.51871385  0.85963619  0.32868012    -0.07100
C847        C  0.53382791  0.85709992  0.26366865    -0.13600
C848        C  0.53399242  0.85700530  0.24124959    -0.13300
C849        C  0.53430352  0.85758458  0.21447902     0.25500
C850        C  0.52200494  0.86218339  0.20163165    -0.18700
C851        C  0.52260241  0.86326257  0.17569271    -0.07200
C852        C  0.53561176  0.85986186  0.16224006    -0.03200
C853        C  0.54786652  0.85516902  0.17526638    -0.08600
C854        C  0.54717117  0.85399193  0.20122334    -0.16200
H855        H  0.56123485  0.86137400  0.34024101     0.12000
H856        H  0.56081441  0.85872187  0.29476075     0.11200
H857        H  0.50671234  0.85751392  0.29239590     0.11200
H858        H  0.50691129  0.86001844  0.33780448     0.11700
H859        H  0.51201957  0.86504395  0.21167205     0.11800
H860        H  0.51302942  0.86695739  0.16618652     0.11700
H861        H  0.55800636  0.85244665  0.16539842     0.11900
H862        H  0.55678119  0.85044915  0.21095633     0.10700
C863        C  0.54094570  0.71756570  0.54744002    -0.03100
C864        C  0.52666447  0.72259908  0.55082718    -0.08900
C865        C  0.52807125  0.73877073  0.53900061    -0.16500
C866        C  0.54378014  0.75018649  0.52369727     0.25600
C867        C  0.55818732  0.74542577  0.52045675    -0.18200
C868        C  0.55678922  0.72921968  0.53224149    -0.07100
C869        C  0.54480937  0.76647202  0.51091137    -0.13600
C870        C  0.54491185  0.77965563  0.49996584    -0.13300
C871        C  0.54407097  0.79477183  0.48654222     0.25500
C872        C  0.55810002  0.81404201  0.49011462    -0.18700
C873        C  0.55700965  0.82863327  0.47723206    -0.07200
C874        C  0.54186821  0.82409568  0.46057567    -0.03200
C875        C  0.52791234  0.80469902  0.45704166    -0.08600
C876        C  0.52900629  0.79016838  0.46995241    -0.16200
H877        H  0.51427073  0.71389398  0.56234995     0.12000
H878        H  0.51680712  0.74227170  0.54162592     0.11200
H879        H  0.57039959  0.75412288  0.50863180     0.11200
H880        H  0.56799651  0.72569679  0.52925130     0.11700
H881        H  0.56982094  0.81779498  0.50292964     0.11800
H882        H  0.56793387  0.84343534  0.48038580     0.11700
H883        H  0.51604052  0.80074533  0.44442784     0.11900
H884        H  0.51804911  0.77532903  0.46705027     0.10700
C885        C  0.35244210  0.42039715  0.07374099    -0.03100
C886        C  0.34412795  0.40302037  0.06040296    -0.08900
C887        C  0.35304837  0.39181557  0.05977949    -0.16500
C888        C  0.37032901  0.39784488  0.07250256     0.25600
C889        C  0.37857327  0.41505162  0.08589840    -0.18200
C890        C  0.36972607  0.42622765  0.08653757    -0.07100
C891        C  0.37989494  0.38668471  0.07178267    -0.13600
C892        C  0.38908274  0.37851404  0.07192208    -0.13300
C893        C  0.40127714  0.37007778  0.07258300     0.25500
C894        C  0.42065971  0.38149509  0.07881240    -0.18700
C895        C  0.43272058  0.37360929  0.07911923    -0.07200
C896        C  0.42557619  0.35412890  0.07325316    -0.03200
C897        C  0.40603850  0.34267843  0.06723712    -0.08600
C898        C  0.39398091  0.35062862  0.06687161    -0.16200
H899        H  0.33084879  0.39818169  0.05034209     0.12000
H900        H  0.34652869  0.37852940  0.04931431     0.11200
H901        H  0.39193513  0.41989802  0.09580427     0.11200
H902        H  0.37650924  0.43952369  0.09696870     0.11700
H903        H  0.42648447  0.39653496  0.08331842     0.11800
H904        H  0.44766517  0.38278975  0.08395315     0.11700
H905        H  0.40011564  0.32763519  0.06271390     0.11900
H906        H  0.37899468  0.34162260  0.06205374     0.10700
C907        C  0.48134697  0.61762076  0.95823707    -0.03100
C908        C  0.46534207  0.60505523  0.94388027    -0.08900
C909        C  0.44915425  0.58996476  0.95511874    -0.16500
C910        C  0.44873168  0.58723950  0.98081981     0.28000
C911        C  0.46450062  0.59981283  0.99530587    -0.18200
C912        C  0.48071492  0.61492397  0.98409881    -0.07100
C913        C  0.43236055  0.57124871  0.99224147    -0.13600
C914        C  0.41898779  0.55760963  0.00195916    -0.13300
C915        C  0.40351500  0.54116872  0.01400757     0.25500
C916        C  0.39006785  0.52558941  0.99992860    -0.18700
C917        C  0.37535185  0.50941671  0.01174294    -0.07200
C918        C  0.37389795  0.50867902  0.03778677    -0.03200
C919        C  0.38742891  0.52442662  0.05176339    -0.08600
C920        C  0.40214705  0.54054455  0.03992549    -0.16200
H921        H  0.46543234  0.60672887  0.92393164     0.12000
H922        H  0.43704378  0.58028973  0.94370948     0.11200
H923        H  0.46434549  0.59781199  0.01519543     0.11200
H924        H  0.49284727  0.62432787  0.99562768     0.11700
H925        H  0.39102254  0.52589886  0.97987540     0.11800
H926        H  0.36511276  0.49750588  0.00050164     0.11700
H927        H  0.38668612  0.52425712  0.07182923     0.11900
H928        H  0.41252341  0.55250172  0.05101648     0.10700
C929        C  0.92759311  0.34836169  0.92191800    -0.03100
C930        C  0.93991022  0.36351135  0.90617876    -0.08900
C931        C  0.95969552  0.37080591  0.90693282    -0.16500
C932        C  0.96754204  0.36311806  0.92340748     0.25600
C933        C  0.95539619  0.34776324  0.93887057    -0.18200
C934        C  0.93550080  0.34037691  0.93809806    -0.07100
C935        C  0.98810649  0.37179317  0.92495426    -0.13600
C936        C  0.00541035  0.38098031  0.92523353    -0.13300
C937        C  0.02585007  0.39390436  0.92448529     0.25500
C938        C  0.03872052  0.38697684  0.92601151    -0.18700
C939        C  0.05852675  0.39975522  0.92466324    -0.07200
C940        C  0.06564427  0.41959034  0.92162112    -0.03200
C941        C  0.05259331  0.42638072  0.92023950    -0.08600
C942        C  0.03287146  0.41363578  0.92170180    -0.16200
H943        H  0.93427537  0.36991507  0.89344447     0.12000
H944        H  0.96892871  0.38269944  0.89490791     0.11200
H945        H  0.96130030  0.34171560  0.95174769     0.11200
H946        H  0.92636440  0.32867681  0.95040001     0.11700
H947        H  0.03346235  0.37173325  0.92812341     0.11800
H948        H  0.06824366  0.39412023  0.92577599     0.11700
H949        H  0.05762272  0.44156584  0.91799354     0.11900
H950        H  0.02306959  0.41917730  0.92047966     0.10700
C951        C  0.27620199  0.45074443  0.03857569    -0.03100
C952        C  0.27194411  0.46572293  0.03985930    -0.08900
C953        C  0.25601938  0.46427130  0.02748827    -0.16500
C954        C  0.24405013  0.44782996  0.01367839     0.25600
C955        C  0.24803874  0.43273248  0.01243526    -0.18200
C956        C  0.26404411  0.43417814  0.02479424    -0.07100
C957        C  0.22797235  0.44681374  0.00049673    -0.13600
C958        C  0.21504639  0.44718505  0.98961316    -0.13300
C959        C  0.20019474  0.44880132  0.97676597     0.25500
C960        C  0.20512678  0.46389509  0.96001231    -0.18700
C961        C  0.19081503  0.46588671  0.94799601    -0.07200
C962        C  0.17133793  0.45279564  0.95259042    -0.03200
C963        C  0.16648282  0.43758764  0.96932611    -0.08600
C964        C  0.18084035  0.43562748  0.98134850    -0.16200
H965        H  0.28103185  0.47867799  0.05026863     0.12000
H966        H  0.25311461  0.47606059  0.02856814     0.11200
H967        H  0.23888795  0.41993772  0.00177571     0.11200
H968        H  0.26696192  0.42241948  0.02346572     0.11700
H969        H  0.22004285  0.47420659  0.95635791     0.11800
H970        H  0.19500544  0.47774623  0.93521948     0.11700
H971        H  0.15161611  0.42730318  0.97324692     0.11900
H972        H  0.17684397  0.42391319  0.99432906     0.10700
C973        C  0.42686242  0.35828081  0.42065580    -0.03100
C974        C  0.43144530  0.37547734  0.40828952    -0.08900
C975        C  0.41877307  0.38262762  0.40863292    -0.16500
C976        C  0.40133539  0.37278549  0.42140442     0.25600
C977        C  0.39665252  0.35568843  0.43393255    -0.18200
C978        C  0.40932396  0.34844545  0.43353168    -0.07100
C979        C  0.38857479  0.38057782  0.42166689    -0.13600
C980        C  0.37940263  0.38875854  0.42093778    -0.13300
C981        C  0.37046372  0.40047423  0.41918687     0.25500
C982        C  0.35368917  0.39576751  0.43245654    -0.18700
C983        C  0.34579147  0.40787994  0.43152055    -0.07200
C984        C  0.35462394  0.42486165  0.41732529    -0.03200
C985        C  0.37128584  0.42927779  0.40378772    -0.08600
C986        C  0.37911585  0.41718298  0.40472697    -0.16200
H987        H  0.44481249  0.38338423  0.39819622     0.12000
H988        H  0.42260138  0.39588157  0.39892769     0.11200
H989        H  0.38323309  0.34795789  0.44396433     0.11200
H990        H  0.40542023  0.33519720  0.44326300     0.11700
H991        H  0.34686628  0.38289595  0.44375585     0.11800
H992        H  0.33293218  0.40408433  0.44210125     0.11700
H993        H  0.37840351  0.44220050  0.39263168     0.11900
H994        H  0.39210720  0.42101621  0.39439771     0.10700
C995        C  0.37783723  0.51502471  0.45351499    -0.03100
C996        C  0.38452206  0.51261539  0.47660680    -0.08900
C997        C  0.39852204  0.52849071  0.48963275    -0.16500
C998        C  0.40603155  0.54700952  0.47981971     0.25600
C999        C  0.39951010  0.54956348  0.45679505    -0.18200
C1000       C  0.38550587  0.53367202  0.44368899    -0.07100
C1001       C  0.42078297  0.56325210  0.49312961    -0.13600
C1002       C  0.43369471  0.57650622  0.50409016    -0.13300
C1003       C  0.44992220  0.59200218  0.51650391     0.25500
C1004       C  0.46721979  0.60270697  0.50365871    -0.18700
C1005       C  0.48328161  0.61727827  0.51574962    -0.07200
C1006       C  0.48228675  0.62131180  0.54093233    -0.03200
C1007       C  0.46479431  0.61063035  0.55367274    -0.08600
C1008       C  0.44871562  0.59606907  0.54151341    -0.16200
H1009       H  0.37891276  0.49843866  0.48464452     0.12000
H1010       H  0.40351967  0.52631110  0.50734987     0.11200
H1011       H  0.40528582  0.56382221  0.44893936     0.11200
H1012       H  0.38062941  0.53597444  0.42597036     0.11700
H1013       H  0.46834801  0.59966181  0.48433581     0.11800
H1014       H  0.49655486  0.62522022  0.50545890     0.11700
H1015       H  0.46359300  0.61340129  0.57306721     0.11900
H1016       H  0.43542127  0.58785615  0.55168789     0.10700
C1017       C  0.31872376  0.46083673  0.15486295    -0.03100
C1018       C  0.30875969  0.44378932  0.16871725    -0.08900
C1019       C  0.30798608  0.44443712  0.19462273    -0.16500
C1020       C  0.31709733  0.46211074  0.20700984     0.25600
C1021       C  0.32665316  0.47918323  0.19333355    -0.18200
C1022       C  0.32746304  0.47856874  0.16741493    -0.07100
C1023       C  0.31729131  0.46265957  0.23375132    -0.13600
C1024       C  0.31801662  0.46301852  0.25613515    -0.13300
C1025       C  0.31949751  0.46351492  0.28281523     0.25500
C1026       C  0.33229636  0.48063341  0.29484409    -0.18700
C1027       C  0.33416278  0.48106586  0.32068474    -0.07200
C1028       C  0.32322207  0.46435126  0.33485776    -0.03200
C1029       C  0.31027010  0.44723762  0.32264949    -0.08600
C1030       C  0.30845122  0.44682983  0.29677791    -0.16200
H1031       H  0.30193724  0.42992688  0.15958108     0.12000
H1032       H  0.30057274  0.43113427  0.20501473     0.11200
H1033       H  0.33377757  0.49294660  0.20271968     0.11200
H1034       H  0.33526501  0.49193109  0.15725731     0.11700
H1035       H  0.34095389  0.49362737  0.28422727     0.11800
H1036       H  0.34428562  0.49443794  0.32954485     0.11700
H1037       H  0.30171772  0.43412130  0.33305782     0.11900
H1038       H  0.29853877  0.43348671  0.28766318     0.10700
C1039       C  0.06902363  0.42492256  0.56711815    -0.03100
C1040       C  0.05615502  0.43196484  0.56771310    -0.08900
C1041       C  0.03640539  0.41936401  0.56677381    -0.16500
C1042       C  0.02917728  0.39953537  0.56528518     0.25600
C1043       C  0.04185112  0.39234394  0.56431220    -0.18200
C1044       C  0.06170068  0.40498371  0.56515034    -0.07100
C1045       C  0.00872979  0.38681865  0.56559649    -0.13600
C1046       C  0.99146223  0.37789580  0.56681954    -0.13300
C1047       C  0.97098672  0.36932305  0.56925296     0.25500
C1048       C  0.95868215  0.35014883  0.56251650    -0.18700
C1049       C  0.93878665  0.34214446  0.56476299    -0.07200
C1050       C  0.93103374  0.35324609  0.57387742    -0.03200
C1051       C  0.94353742  0.37245037  0.58069777    -0.08600
C1052       C  0.96334898  0.38041810  0.57834774    -0.16200
H1053       H  0.06134530  0.44723443  0.56917452     0.12000
H1054       H  0.02674092  0.42509231  0.56755944     0.11200
H1055       H  0.03640845  0.37701178  0.56320682     0.11200
H1056       H  0.07128169  0.39916243  0.56471586     0.11700
H1057       H  0.96444679  0.34143160  0.55544470     0.11800
H1058       H  0.92948919  0.32732132  0.55936278     0.11700
H1059       H  0.93800690  0.38138528  0.58768477     0.11900
H1060       H  0.97272467  0.39527322  0.58359012     0.10700
C1061       C  0.13847583  0.46336403  0.65622761    -0.03100
C1062       C  0.13089704  0.44564906  0.66870922    -0.08900
C1063       C  0.13256849  0.44506488  0.69454289    -0.16500
C1064       C  0.14188116  0.46215623  0.70822263     0.25600
C1065       C  0.14975705  0.47983408  0.69587240    -0.18200
C1066       C  0.14807774  0.48045070  0.67007222    -0.07100
C1067       C  0.14263119  0.46162164  0.73497896    -0.13600
C1068       C  0.14259197  0.46156999  0.75741814    -0.13300
C1069       C  0.14166971  0.46190049  0.78417793     0.25500
C1070       C  0.14438411  0.47849540  0.79632798    -0.18700
C1071       C  0.14234318  0.47855921  0.82213612    -0.07200
C1072       C  0.13755179  0.46199336  0.83618809    -0.03200
C1073       C  0.13527346  0.44550472  0.82391039    -0.08600
C1074       C  0.13727614  0.44545684  0.79807303    -0.16200
H1075       H  0.12342827  0.43225141  0.65856362     0.12000
H1076       H  0.12635939  0.43129116  0.70387244     0.11200
H1077       H  0.15695211  0.49316193  0.70623534     0.11200
H1078       H  0.15408757  0.49430441  0.66100125     0.11700
H1079       H  0.14776816  0.49131080  0.78579712     0.11800
H1080       H  0.14423935  0.49148113  0.83104409     0.11700
H1081       H  0.13159697  0.43253026  0.83421675     0.11900
H1082       H  0.13510820  0.43251406  0.78891224     0.10700
C1083       C  0.28149822  0.45863391  0.45282248    -0.03100
C1084       C  0.27660904  0.47308762  0.45000356    -0.08900
C1085       C  0.26104091  0.47208827  0.46289501    -0.16500
C1086       C  0.25010231  0.45665464  0.47884758     0.25600
C1087       C  0.25475458  0.44209980  0.48165413    -0.18200
C1088       C  0.27034476  0.44305943  0.46871378    -0.07100
C1089       C  0.23428184  0.45598889  0.49241466    -0.13600
C1090       C  0.22126346  0.45615180  0.50342700    -0.13300
C1091       C  0.20588860  0.45699464  0.51616302     0.25500
C1092       C  0.20999856  0.47012966  0.53552015    -0.18700
C1093       C  0.19517739  0.47139958  0.54736666    -0.07200
C1094       C  0.17599103  0.45952884  0.54002096    -0.03200
C1095       C  0.17195831  0.44624247  0.52072132    -0.08600
C1096       C  0.18681612  0.44501468  0.50886599    -0.16200
H1097       H  0.28490572  0.48527448  0.43792200     0.12000
H1098       H  0.25761289  0.48343210  0.46053408     0.11200
H1099       H  0.24640624  0.43006711  0.49394378     0.11200
H1100       H  0.27377130  0.43174349  0.47130483     0.11700
H1101       H  0.22468342  0.47951030  0.54133400     0.11800
H1102       H  0.19875253  0.48176165  0.56216886     0.11700
H1103       H  0.15734056  0.43691788  0.51463889     0.11900
H1104       H  0.18343648  0.43481609  0.49388777     0.10700
C1105       C  0.93037102  0.57168598  0.07791438    -0.03100
C1106       C  0.94306558  0.56564120  0.08628488    -0.08900
C1107       C  0.96285056  0.57811239  0.08558565    -0.16500
C1108       C  0.97030262  0.59682555  0.07652110     0.25600
C1109       C  0.95781320  0.60302799  0.06809111    -0.18200
C1110       C  0.93792739  0.59052224  0.06878039    -0.07100
C1111       C  0.99079214  0.60933101  0.07571504    -0.13600
C1112       C  0.00809477  0.61814060  0.07558135    -0.13300
C1113       C  0.02863276  0.62648021  0.07599241     0.25500
C1114       C  0.04084114  0.64616527  0.07180745    -0.18700
C1115       C  0.06078814  0.65393460  0.07224526    -0.07200
C1116       C  0.06866804  0.64206454  0.07700385    -0.03200
C1117       C  0.05625876  0.62233993  0.08116784    -0.08600
C1118       C  0.03642067  0.61462798  0.08061691    -0.16200
H1119       H  0.93770802  0.55124850  0.09345738     0.12000
H1120       H  0.97236033  0.57313241  0.09210839     0.11200
H1121       H  0.96342698  0.61747908  0.06098528     0.11200
H1122       H  0.92849337  0.59557992  0.06226266     0.11700
H1123       H  0.03496015  0.65547882  0.06820769     0.11800
H1124       H  0.07001374  0.66917911  0.06904486     0.11700
H1125       H  0.06187991  0.61281955  0.08483334     0.11900
H1126       H  0.02713482  0.59938448  0.08385378     0.10700
C1127       C  0.13429454  0.61718318  0.04460462    -0.03100
C1128       C  0.12110807  0.60646092  0.02583214    -0.08900
C1129       C  0.12155492  0.59097534  0.01461916    -0.16500
C1130       C  0.13522653  0.58601345  0.02188345     0.25600
C1131       C  0.14843200  0.59661529  0.04055270    -0.18200
C1132       C  0.14794715  0.61207649  0.05190074    -0.07100
C1133       C  0.13573261  0.57017841  0.00991561    -0.13600
C1134       C  0.13570255  0.55696490  0.99912556    -0.13300
C1135       C  0.13514204  0.54120751  0.98548307     0.25500
C1136       C  0.12935413  0.52358945  0.99722999    -0.18700
C1137       C  0.12819583  0.50812653  0.98376806    -0.07200
C1138       C  0.13281100  0.51006577  0.95832129    -0.03200
C1139       C  0.13878717  0.52786686  0.94671644    -0.08600
C1140       C  0.13992607  0.54331325  0.96021473    -0.16200
H1141       H  0.11035758  0.60996660  0.01990603     0.12000
H1142       H  0.11125558  0.58289941  0.00021064     0.11200
H1143       H  0.15909856  0.59293941  0.04633350     0.11200
H1144       H  0.15826018  0.62004896  0.06632250     0.11700
H1145       H  0.12557731  0.52174552  0.01675209     0.11800
H1146       H  0.12356012  0.49461674  0.99324010     0.11700
H1147       H  0.14243546  0.52981189  0.92716426     0.11900
H1148       H  0.14438792  0.55685108  0.95089018     0.10700
C1149       C  0.35932240  0.92802350  0.93543082    -0.03100
C1150       C  0.37927280  0.93988579  0.93287157    -0.08900
C1151       C  0.38759565  0.95984682  0.93320158    -0.16500
C1152       C  0.37614025  0.96828169  0.93606066     0.25600
C1153       C  0.35630084  0.95661635  0.93934177    -0.18200
C1154       C  0.34791644  0.93655748  0.93911329    -0.07100
C1155       C  0.38484646  0.98886652  0.93444737    -0.13600
C1156       C  0.39328391  0.00609915  0.93195915    -0.13300
C1157       C  0.40447205  0.02657804  0.92824738     0.25500
C1158       C  0.39983789  0.03897952  0.94083046    -0.18700
C1159       C  0.41117291  0.05890001  0.93776128    -0.07200
C1160       C  0.42730845  0.06664797  0.92206513    -0.03200
C1161       C  0.43170731  0.05405104  0.90928008    -0.08600
C1162       C  0.42036242  0.03416679  0.91235524    -0.16200
H1163       H  0.38844629  0.93374092  0.93017444     0.12000
H1164       H  0.40295902  0.96871730  0.93069172     0.11200
H1165       H  0.34729669  0.96300309  0.94158178     0.11200
H1166       H  0.33251748  0.92775936  0.94117512     0.11700
H1167       H  0.38758323  0.03326893  0.95320429     0.11800
H1168       H  0.40746170  0.06823379  0.94789610     0.11700
H1169       H  0.44405108  0.05956737  0.89709658     0.11900
H1170       H  0.42410389  0.02472580  0.90254138     0.10700
C1171       C  0.37889466  0.85812213  0.96457163    -0.03100
C1172       C  0.38625468  0.84720277  0.95373927    -0.08900
C1173       C  0.40120645  0.84596058  0.96520811    -0.16500
C1174       C  0.40902145  0.85569053  0.98752648     0.25600
C1175       C  0.40166587  0.86646010  0.99850140    -0.18200
C1176       C  0.38666370  0.86762795  0.98715835    -0.07100
C1177       C  0.42483400  0.85499061  0.99895936    -0.13600
C1178       C  0.43831268  0.85492555  0.00864500    -0.13300
C1179       C  0.45463998  0.85537416  0.02027720     0.25500
C1180       C  0.45328633  0.84867929  0.04461377    -0.18700
C1181       C  0.46929689  0.84959002  0.05613932    -0.07200
C1182       C  0.48687601  0.85723842  0.04343427    -0.03200
C1183       C  0.48805553  0.86377459  0.01890944    -0.08600
C1184       C  0.47203429  0.86284853  0.00742698    -0.16200
H1185       H  0.38053968  0.83973383  0.93635896     0.12000
H1186       H  0.40680123  0.83759120  0.95654436     0.11200
H1187       H  0.40762118  0.87407526  0.01574517     0.11200
H1188       H  0.38134493  0.87621099  0.99587402     0.11700
H1189       H  0.43989961  0.84290139  0.05475421     0.11800
H1190       H  0.46798041  0.84452580  0.07506916     0.11700
H1191       H  0.50141614  0.86981005  0.00869238     0.11900
H1192       H  0.47325861  0.86810715  0.98860729     0.10700
C1193       C  0.17450712  0.71515004  0.04338427    -0.03100
C1194       C  0.17017651  0.72306380  0.02276927    -0.08900
C1195       C  0.18476141  0.73891389  0.01024200    -0.16500
C1196       C  0.20380073  0.74706373  0.01822341     0.25600
C1197       C  0.20819254  0.73938802  0.03886206    -0.18200
C1198       C  0.19366438  0.72353660  0.05135178    -0.07100
C1199       C  0.21893057  0.76312086  0.00514740    -0.13600
C1200       C  0.23212098  0.77639628  0.99462721    -0.13300
C1201       C  0.24844459  0.79199608  0.98259384     0.25500
C1202       C  0.25872977  0.80982130  0.99444954    -0.18700
C1203       C  0.27513139  0.82470885  0.98329824    -0.07200
C1204       C  0.28149654  0.82186288  0.96021617    -0.03200
C1205       C  0.27092635  0.80399803  0.94827149    -0.08600
C1206       C  0.25448509  0.78917226  0.95939155    -0.16200
H1207       H  0.15556780  0.71688629  0.01618672     0.12000
H1208       H  0.18120311  0.74473748  0.99426615     0.11200
H1209       H  0.22286684  0.74557105  0.04519976     0.11200
H1210       H  0.19745191  0.71777474  0.06717148     0.11700
H1211       H  0.25420253  0.81213935  0.01245547     0.11800
H1212       H  0.28302712  0.83829695  0.99293637     0.11700
H1213       H  0.27548020  0.80141266  0.93045840     0.11900
H1214       H  0.24665640  0.77543073  0.95007228     0.10700
C1215       C  0.06926239  0.65155621  0.42855138    -0.03100
C1216       C  0.05615664  0.63557648  0.41456510    -0.08900
C1217       C  0.03646485  0.62866820  0.41646502    -0.16500
C1218       C  0.02948956  0.63753396  0.43241654     0.25600
C1219       C  0.04240987  0.65352523  0.44639314    -0.18200
C1220       C  0.06220232  0.66053387  0.44444124    -0.07100
C1221       C  0.00903152  0.62964715  0.43467277    -0.13600
C1222       C  0.99171025  0.62120590  0.43536665    -0.13300
C1223       C  0.97109746  0.60919902  0.43486900     0.25500
C1224       C  0.96117469  0.59884385  0.45602826    -0.18700
C1225       C  0.94148365  0.58560831  0.45478012    -0.07200
C1226       C  0.93147921  0.58249250  0.43227998    -0.03200
C1227       C  0.94146606  0.59332895  0.41129764    -0.08600
C1228       C  0.96111697  0.60656857  0.41259826    -0.16200
H1229       H  0.06111849  0.62835655  0.40214911     0.12000
H1230       H  0.02663810  0.61626447  0.40560386     0.11200
H1231       H  0.03720128  0.66048370  0.45888128     0.11200
H1232       H  0.07194613  0.67284095  0.45547400     0.11700
H1233       H  0.96874922  0.60062877  0.47333009     0.11800
H1234       H  0.93420365  0.57746803  0.47123100     0.11700
H1235       H  0.93417491  0.59127830  0.39370997     0.11900
H1236       H  0.96862393  0.61436984  0.39604562     0.10700
C1237       C  0.13492926  0.62572439  0.46162117    -0.03100
C1238       C  0.12429353  0.61776539  0.48347230    -0.08900
C1239       C  0.12518678  0.60292384  0.49588861    -0.16500
C1240       C  0.13676818  0.59586501  0.48671199     0.25600
C1241       C  0.14759580  0.60386734  0.46513327    -0.18200
C1242       C  0.14668853  0.61869585  0.45264064    -0.07100
C1243       C  0.13714205  0.58011271  0.49910793    -0.13600
C1244       C  0.13702388  0.56658868  0.50913303    -0.13300
C1245       C  0.13651766  0.55005740  0.52051177     0.25500
C1246       C  0.13458575  0.54747002  0.54628844    -0.18700
C1247       C  0.13381947  0.53125956  0.55719965    -0.07200
C1248       C  0.13492023  0.51737694  0.54242935    -0.03200
C1249       C  0.13690823  0.52012618  0.51657015    -0.08600
C1250       C  0.13771903  0.53635516  0.50571323    -0.16200
H1251       H  0.11511758  0.62288228  0.49086115     0.12000
H1252       H  0.11673171  0.59685631  0.51252621     0.11200
H1253       H  0.15661228  0.59852230  0.45782132     0.11200
H1254       H  0.15507527  0.62456782  0.43591900     0.11700
H1255       H  0.13360231  0.55794810  0.55796009     0.11800
H1256       H  0.13223400  0.52952370  0.57713702     0.11700
H1257       H  0.13778493  0.50969386  0.50469357     0.11900
H1258       H  0.13919017  0.53816683  0.48576964     0.10700
C1259       C  0.13559363  0.67174820  0.16165414    -0.03100
C1260       C  0.14074381  0.66063636  0.17652324    -0.08900
C1261       C  0.14209605  0.66299879  0.20232732    -0.16500
C1262       C  0.13828179  0.67644973  0.21362941     0.25600
C1263       C  0.13300710  0.68746959  0.19898186    -0.18200
C1264       C  0.13168515  0.68515943  0.17316409    -0.07100
C1265       C  0.13958628  0.67875656  0.24024974    -0.13600
C1266       C  0.14034413  0.67999560  0.26261803    -0.13300
C1267       C  0.14056253  0.68016471  0.28940767     0.25500
C1268       C  0.13629627  0.69258557  0.30267111    -0.18700
C1269       C  0.13527644  0.69172275  0.32866460    -0.07200
C1270       C  0.13845464  0.67836359  0.34168027    -0.03200
C1271       C  0.14317570  0.66628527  0.32820212    -0.08600
C1272       C  0.14422166  0.66719491  0.30228225    -0.16200
H1273       H  0.14377372  0.65015596  0.16821337     0.12000
H1274       H  0.14611231  0.65432448  0.21346551     0.11200
H1275       H  0.12992990  0.69785840  0.20750854     0.11200
H1276       H  0.12758725  0.69384999  0.16222267     0.11700
H1277       H  0.13341497  0.70267609  0.29292258     0.11800
H1278       H  0.13162799  0.70121711  0.33852621     0.11700
H1279       H  0.14575717  0.65588893  0.33767221     0.11900
H1280       H  0.14752969  0.65750628  0.29225013     0.10700
C1281       C  0.35566576  0.93152876  0.57755982    -0.03100
C1282       C  0.34362910  0.93870950  0.57030428    -0.08900
C1283       C  0.35094145  0.95855643  0.56791974    -0.16500
C1284       C  0.37034159  0.97141697  0.57276274     0.25600
C1285       C  0.38236557  0.96434820  0.57998668    -0.18200
C1286       C  0.37511049  0.94458224  0.58237810    -0.07100
C1287       C  0.37818455  0.99187805  0.57028449    -0.13600
C1288       C  0.38647354  0.00918194  0.56866226    -0.13300
C1289       C  0.39838888  0.02979102  0.56728513     0.25500
C1290       C  0.41788714  0.03778713  0.56173375    -0.18700
C1291       C  0.42994377  0.05770643  0.56174521    -0.07200
C1292       C  0.42267180  0.06997432  0.56732599    -0.03200
C1293       C  0.40296626  0.06188191  0.57231950    -0.08600
C1294       C  0.39090059  0.04188261  0.57236356    -0.16200
H1295       H  0.32859246  0.92900108  0.56648242     0.12000
H1296       H  0.34149380  0.96385176  0.56229562     0.11200
H1297       H  0.39740218  0.97414084  0.58376369     0.11200
H1298       H  0.38474756  0.93952374  0.58799589     0.11700
H1299       H  0.42386031  0.02859041  0.55780503     0.11800
H1300       H  0.44504014  0.06348888  0.55782494     0.11700
H1301       H  0.39698087  0.07097599  0.57676064     0.11900
H1302       H  0.37584020  0.03586569  0.57674141     0.10700
C1303       C  0.48583325  0.86446093  0.46186033    -0.03100
C1304       C  0.48647082  0.86739038  0.48767130    -0.08900
C1305       C  0.47123912  0.86762383  0.49986621    -0.16500
C1306       C  0.45518561  0.86492342  0.48645389     0.25600
C1307       C  0.45436914  0.86185663  0.46078382    -0.18200
C1308       C  0.46959078  0.86161962  0.44854316    -0.07100
C1309       C  0.43956757  0.86527493  0.49906422    -0.13600
C1310       C  0.42650376  0.86546791  0.50981791    -0.13300
C1311       C  0.41085772  0.86556467  0.52272406     0.25500
C1312       C  0.39599568  0.86561319  0.50930319    -0.18700
C1313       C  0.38084340  0.86580693  0.52178060    -0.07200
C1314       C  0.38033986  0.86592884  0.54789219    -0.03200
C1315       C  0.39525994  0.86573613  0.56125028    -0.08600
C1316       C  0.41043267  0.86558048  0.54872286    -0.16200
H1317       H  0.49881315  0.86968349  0.49840389     0.12000
H1318       H  0.47201890  0.86998880  0.51974092     0.11200
H1319       H  0.44200637  0.85972916  0.45021457     0.11200
H1320       H  0.46872600  0.85939662  0.42864889     0.11700
H1321       H  0.39614965  0.86557183  0.48918187     0.11800
H1322       H  0.36957325  0.86596227  0.51098538     0.11700
H1323       H  0.39529084  0.86587627  0.58136013     0.11900
H1324       H  0.42184621  0.86552388  0.55930538     0.10700
C1325       C  0.32748219  0.86330792  0.66685320    -0.03100
C1326       C  0.31952181  0.87275174  0.68012766    -0.08900
C1327       C  0.31873477  0.87201019  0.70609657    -0.16500
C1328       C  0.32580740  0.86176183  0.71911912     0.25600
C1329       C  0.33363942  0.85222550  0.70604710    -0.18200
C1330       C  0.33449914  0.85300255  0.68009461    -0.07100
C1331       C  0.32524095  0.86117794  0.74586941    -0.13600
C1332       C  0.32520762  0.86077210  0.76826983    -0.13300
C1333       C  0.32589072  0.86057320  0.79499514     0.25500
C1334       C  0.33799757  0.85525489  0.80691731    -0.18700
C1335       C  0.33931013  0.85576423  0.83281914    -0.07200
C1336       C  0.32857224  0.86168859  0.84713888    -0.03200
C1337       C  0.31621182  0.86673035  0.83505019    -0.08600
C1338       C  0.31487698  0.86615257  0.80912500    -0.16200
H1339       H  0.31411118  0.88089779  0.67045923     0.12000
H1340       H  0.31268327  0.87948486  0.71600613     0.11200
H1341       H  0.33918644  0.84427482  0.71592220     0.11200
H1342       H  0.34076114  0.84563913  0.67040165     0.11700
H1343       H  0.34658404  0.85091205  0.79617673     0.11800
H1344       H  0.34893760  0.85178908  0.84161026     0.11700
H1345       H  0.30772996  0.87129175  0.84560114     0.11900
H1346       H  0.30544661  0.87029065  0.80009851     0.10700
C1347       C  0.17617458  0.72219131  0.45939093    -0.03100
C1348       C  0.17207410  0.73323216  0.47593393    -0.08900
C1349       C  0.18689650  0.74861117  0.48888512    -0.16500
C1350       C  0.20597173  0.75315498  0.48542788     0.25600
C1351       C  0.21013994  0.74228756  0.46889517    -0.18200
C1352       C  0.19537853  0.72692837  0.45598650    -0.07100
C1353       C  0.22132050  0.76876194  0.49896988    -0.13600
C1354       C  0.23460607  0.78149062  0.51014731    -0.13300
C1355       C  0.25080229  0.79630632  0.52350370     0.25500
C1356       C  0.26145918  0.79138346  0.53937182    -0.18700
C1357       C  0.27725243  0.80568463  0.55224529    -0.07200
C1358       C  0.28267044  0.82516470  0.54936178    -0.03200
C1359       C  0.27188881  0.82999845  0.53338497    -0.08600
C1360       C  0.25605409  0.81565772  0.52057151    -0.16200
H1361       H  0.15742957  0.72987650  0.47902490     0.12000
H1362       H  0.18347035  0.75688635  0.50166853     0.11200
H1363       H  0.22481547  0.74562028  0.46607482     0.11200
H1364       H  0.19900479  0.71867609  0.44344217     0.11700
H1365       H  0.25758218  0.77647016  0.54176986     0.11800
H1366       H  0.28531108  0.80150709  0.56429563     0.11700
H1367       H  0.27573624  0.84487032  0.53071536     0.11900
H1368       H  0.24796062  0.81966860  0.50832520     0.10700
loop_ 
_geom_bond_atom_site_label_1 
_geom_bond_atom_site_label_2 
_geom_bond_distance 
_geom_bond_site_symmetry_2 
_ccdc_geom_bond_type 
O1            C4   1.265       .  A
O1           Cd6   2.477       .  S
C2           O11   1.265       .  A
C2            O7   1.266       .  A
C2         C1314   1.481       .  S
O3            C9   1.266       .  A
O3           Cd6   2.484       .  S
C4           O12   1.265       .  A
C4         C1325   1.481       .  S
C5           O10   1.267       .  A
C5            O8   1.264       .  A
C5         C1281   1.482       .  S
Cd6          O13   2.478       .  S
Cd6          O12   2.477       .  S
Cd6          O11   2.464       .  S
Cd6           O7   2.481       .  S
Cd6          O10   2.492       .  S
Cd6           O8   2.454       .  S
C9           O13   1.265       .  A
C9         C1358   1.483       .  S
O14          C17   1.265       .  A
O14         Cd19   2.484       .  S
C15          O24   1.266       .  A
C15          O20   1.265       .  A
C15        C1270   1.483       .  S
O16          C22   1.267       .  A
O16         Cd19   2.490       .  S
C17          O25   1.264       .  A
C17        C1237   1.481       .  S
C18          O23   1.266       .  A
C18          O21   1.263       .  A
C18        C1347   1.482       .  S
Cd19         O26   2.456       .  S
Cd19         O25   2.468       .  S
Cd19         O24   2.492       .  S
Cd19         O20   2.465       .  S
Cd19         O23   2.496       .  S
Cd19         O21   2.461       .  S
C22          O26   1.266       .  A
C22        C1215   1.483       .  S
O27          C30   1.266       .  A
O27         Cd32   2.478       .  S
C28          O37   1.266       .  A
C28          O33   1.266       .  A
C28        C1336   1.479       .  S
O29          C35   1.265       .  A
O29         Cd32   2.478       .  S
C30          O38   1.265       .  A
C30        C1171   1.478       .  S
C31          O36   1.268       .  A
C31          O34   1.264       .  A
C31        C1149   1.478       .  S
Cd32         O39   2.454       .  S
Cd32         O38   2.455       .  S
Cd32         O37   2.464       .  S
Cd32         O33   2.461       .  S
Cd32         O36   2.489       .  S
Cd32         O34   2.431       .  S
C35          O39   1.263       .  A
C35        C1204   1.477       .  S
O40          C43   1.266       .  A
O40         Cd45   2.475       .  S
C41          O50   1.265       .  A
C41          O46   1.267       .  A
C41        C1127   1.482       .  S
O42          C48   1.269       .  A
O42         Cd45   2.492       .  S
C43          O51   1.265       .  A
C43        C1259   1.481       .  S
C44          O49   1.266       .  A
C44          O47   1.264       .  A
C44        C1193   1.480       .  S
Cd45         O52   2.428       .  S
Cd45         O51   2.471       .  S
Cd45         O50   2.463       .  S
Cd45         O46   2.486       .  S
Cd45         O49   2.489       .  S
Cd45         O47   2.461       .  S
C48          O52   1.265       .  A
C48        C1116   1.479       .  S
O53          C56   1.266       .  A
O53         Cd58   2.477       .  S
C54          O63   1.265       .  A
C54          O59   1.265       .  A
C54        C1061   1.482       .  S
O55          C61   1.267       .  A
O55         Cd58   2.495       .  S
C56          O64   1.266       .  A
C56        C1248   1.483       .  S
C57          O62   1.267       .  A
C57          O60   1.265       .  A
C57        C1094   1.483       .  S
Cd58         O65   2.450       .  S
Cd58         O64   2.474       .  S
Cd58         O63   2.481       .  S
Cd58         O59   2.475       .  S
Cd58         O62   2.490       .  S
Cd58         O60   2.468       .  S
C61          O65   1.264       .  A
C61        C1039   1.480       .  S
O66          C69   1.266       .  A
O66         Cd71   2.483       .  S
C67          O76   1.266       .  A
C67          O72   1.265       .  A
C67        C1028   1.480       .  S
O68          C74   1.268       .  A
O68         Cd71   2.494       .  S
C69          O77   1.265       .  A
C69         C995   1.481       .  S
C70          O75   1.267       .  A
C70          O73   1.264       .  A
C70        C1083   1.484       .  S
Cd71         O78   2.452       .  S
Cd71         O77   2.461       .  S
Cd71         O76   2.476       .  S
Cd71         O72   2.464       .  S
Cd71         O75   2.502       .  S
Cd71         O73   2.463       .  S
C74          O78   1.265       .  A
C74         C984   1.483       .  S
O79          C82   1.266       .  A
O79         Cd84   2.483       .  S
C80          O89   1.265       .  A
C80          O85   1.267       .  A
C80        C1138   1.483       .  S
O81          C87   1.266       .  A
O81         Cd84   2.489       .  S
C82          O90   1.265       .  A
C82        C1072   1.483       .  S
C83          O88   1.266       .  A
C83          O86   1.265       .  A
C83         C962   1.480       .  S
Cd84         O91   2.458       .  S
Cd84         O90   2.478       .  S
Cd84         O89   2.467       .  S
Cd84         O85   2.486       .  S
Cd84         O88   2.478       .  S
Cd84         O86   2.460       .  S
C87          O91   1.265       .  A
C87         C940   1.481       .  S
O92          C95   1.264       .  A
O92         Cd97   2.460       .  S
C93         O102   1.266       .  A
C93          O98   1.265       .  A
C93        C1017   1.480       .  S
O94         C100   1.267       .  A
O94         Cd97   2.499       .  S
C95         O103   1.265       .  A
C95         C918   1.478       .  S
C96         O101   1.268       .  A
C96          O99   1.263       .  A
C96         C885   1.482       .  S
Cd97        O104   2.452       .  S
Cd97        O103   2.473       .  S
Cd97        O102   2.471       .  S
Cd97         O98   2.465       .  S
Cd97        O101   2.506       .  S
Cd97         O99   2.441       .  S
C100        O104   1.264       .  A
C100        C951   1.482       .  S
O105        C108   1.267       .  A
O105       Cd110   2.463       .  S
C106        O115   1.266       .  A
C106        O111   1.265       .  A
C106        C841   1.481       .  S
O107        C113   1.266       .  A
O107       Cd110   2.490       .  S
C108        O116   1.266       .  A
C108       C1303   1.479       .  S
C109        O114   1.266       .  A
C109        O112   1.265       .  A
C109        C874   1.481       .  S
Cd110       O117   2.437       .  S
Cd110       O116   2.460       .  S
Cd110       O115   2.482       .  S
Cd110       O111   2.466       .  S
Cd110       O114   2.483       .  S
Cd110       O112   2.460       .  S
C113        O117   1.262       .  A
C113        C819   1.476       .  S
O118        C121   1.266       .  A
O118       Cd123   2.467       .  S
C119        O128   1.265       .  A
C119        O124   1.264       .  A
C119        C797   1.479       .  S
O120        C126   1.267       .  A
O120       Cd123   2.501       .  S
C121        O129   1.267       .  A
C121       C1006   1.481       .  S
C122        O127   1.266       .  A
C122        O125   1.264       .  A
C122        C863   1.482       .  S
Cd123       O130   2.451       .  S
Cd123       O129   2.472       .  S
Cd123       O128   2.480       .  S
Cd123       O124   2.461       .  S
Cd123       O127   2.486       .  S
Cd123       O125   2.469       .  S
C126        O130   1.264       .  A
C126        C775   1.482       .  S
O131        C134   1.264       .  A
O131       Cd136   2.467       .  S
C132        O141   1.266       .  A
C132        O137   1.267       .  A
C132       C1182   1.479       .  S
O133        C139   1.267       .  A
O133       Cd136   2.502       .  S
C134        O142   1.266       .  A
C134        C852   1.481       .  S
C135        O140   1.267       .  A
C135        O138   1.265       .  A
C135        C753   1.484       .  S
Cd136       O143   2.442       .  S
Cd136       O142   2.484       .  S
Cd136       O141   2.457       .  S
Cd136       O137   2.467       .  S
Cd136       O140   2.496       .  S
Cd136       O138   2.467       .  S
C139        O143   1.262       .  A
C139        C731   1.479       .  S
O144        C147   1.265       .  A
O144       Cd149   2.464       .  S
C145        O154   1.266       .  A
C145        O150   1.266       .  A
C145        C907   1.480       .  S
O146        C152   1.266       .  A
O146       Cd149   2.500       .  S
C147        O155   1.266       .  A
C147        C808   1.480       .  S
C148        O153   1.266       .  A
C148        O151   1.266       .  A
C148        C764   1.483       .  S
Cd149       O156   2.452       .  S
Cd149       O155   2.480       .  S
Cd149       O154   2.474       .  S
Cd149       O150   2.462       .  S
Cd149       O153   2.479       .  S
Cd149       O151   2.470       .  S
C152        O156   1.262       .  A
C152        C709   1.481       .  S
O157        C160   1.265       .  A
O157       Cd162   2.483       .  S
C158        O167   1.266       .  A
C158        O163   1.266       .  A
C158        C665   1.485       .  S
O159        C165   1.266       .  A
O159       Cd162   2.495       .  S
C160        O168   1.265       .  A
C160        C643   1.484       .  S
C161        O166   1.265       .  A
C161        O164   1.264       .  A
C161        C698   1.480       .  S
Cd162       O169   2.454       .  S
Cd162       O168   2.487       .  S
Cd162       O167   2.491       .  S
Cd162       O163   2.477       .  S
Cd162       O166   2.481       .  S
Cd162       O164   2.468       .  S
C165        O169   1.265       .  A
C165        C929   1.482       .  S
O170        C173   1.267       .  A
O170       Cd175   2.474       .  S
C171        O180   1.266       .  A
C171        O176   1.266       .  A
C171        C632   1.481       .  S
O172        C178   1.267       .  A
O172       Cd175   2.484       .  S
C173        O181   1.265       .  A
C173        C599   1.479       .  S
C174        O179   1.265       .  A
C174        O177   1.265       .  A
C174        C687   1.479       .  S
Cd175       O182   2.447       .  S
Cd175       O181   2.454       .  S
Cd175       O180   2.468       .  S
Cd175       O176   2.471       .  S
Cd175       O179   2.479       .  S
Cd175       O177   2.458       .  S
C178        O182   1.264       .  A
C178        C742   1.478       .  S
O183        C186   1.266       .  A
O183       Cd188   2.481       .  S
C184        O193   1.265       .  A
C184        O189   1.266       .  A
C184        C566   1.480       .  S
O185        C191   1.267       .  A
O185       Cd188   2.488       .  S
C186        O194   1.266       .  A
C186        C676   1.484       .  S
C187        O192   1.266       .  A
C187        O190   1.265       .  A
C187        C588   1.480       .  S
Cd188       O195   2.445       .  S
Cd188       O194   2.474       .  S
Cd188       O193   2.471       .  S
Cd188       O189   2.466       .  S
Cd188       O192   2.481       .  S
Cd188       O190   2.462       .  S
C191        O195   1.264       .  A
C191       C1050   1.479       .  S
O196        C199   1.265       .  A
O196       Cd201   2.461       .  S
C197        O206   1.264       .  A
C197        O202   1.265       .  A
C197        C533   1.478       .  S
O198        C204   1.266       .  A
O198       Cd201   2.469       .  S
C199        O207   1.266       .  A
C199        C621   1.481       .  S
C200        O205   1.264       .  A
C200        O203   1.265       .  A
C200        C577   1.480       .  S
Cd201       O208   2.448       .  S
Cd201       O207   2.479       .  S
Cd201       O206   2.458       .  S
Cd201       O202   2.478       .  S
Cd201       O205   2.476       .  S
Cd201       O203   2.470       .  S
C204        O208   1.265       .  A
C204        C830   1.476       .  S
O209        C212   1.266       .  A
O209       Cd214   2.484       .  S
C210        O219   1.266       .  A
C210        O215   1.266       .  A
C210        C489   1.484       .  S
O211        C217   1.267       .  A
O211       Cd214   2.486       .  S
C212        O220   1.264       .  A
C212        C610   1.480       .  S
C213        O218   1.266       .  A
C213        O216   1.264       .  A
C213        C522   1.483       .  S
Cd214       O221   2.463       .  S
Cd214       O220   2.460       .  S
Cd214       O219   2.484       .  S
Cd214       O215   2.474       .  S
Cd214       O218   2.493       .  S
Cd214       O216   2.464       .  S
C217        O221   1.265       .  A
C217       C1160   1.482       .  S
O222        C225   1.265       .  A
O222       Cd227   2.468       .  S
C223        O232   1.266       .  A
C223        O228   1.266       .  A
C223        C467   1.482       .  S
O224        C230   1.266       .  A
O224       Cd227   2.501       .  S
C225        O233   1.266       .  A
C225        C456   1.480       .  S
C226        O231   1.266       .  A
C226        O229   1.264       .  A
C226        C511   1.484       .  S
Cd227       O234   2.464       .  S
Cd227       O233   2.473       .  S
Cd227       O232   2.474       .  S
Cd227       O228   2.472       .  S
Cd227       O231   2.498       .  S
Cd227       O229   2.465       .  S
C230        O234   1.264       .  A
C230        C896   1.484       .  S
O235        C238   1.265       .  A
O235       Cd240   2.479       .  S
C236        O245   1.266       .  A
C236        O241   1.267       .  A
C236        C544   1.478       .  S
O237        C243   1.266       .  A
O237       Cd240   2.491       .  S
C238        O246   1.265       .  A
C238        C500   1.483       .  S
C239        O244   1.266       .  A
C239        O242   1.264       .  A
C239        C434   1.483       .  S
Cd240       O247   2.457       .  S
Cd240       O246   2.479       .  S
Cd240       O245   2.441       .  S
Cd240       O241   2.479       .  S
Cd240       O244   2.494       .  S
Cd240       O242   2.467       .  S
C243        O247   1.264       .  A
C243       C1292   1.481       .  S
O248        C251   1.266       .  A
O248       Cd253   2.473       .  S
C249        O258   1.264       .  A
C249        O254   1.266       .  A
C249        C412   1.480       .  S
O250        C256   1.267       .  A
O250       Cd253   2.494       .  S
C251        O259   1.266       .  A
C251        C478   1.483       .  S
C252        O257   1.266       .  A
C252        O255   1.264       .  A
C252        C423   1.482       .  S
Cd253       O260   2.463       .  S
Cd253       O259   2.480       .  S
Cd253       O258   2.462       .  S
Cd253       O254   2.484       .  S
Cd253       O257   2.483       .  S
Cd253       O255   2.469       .  S
C256        O260   1.265       .  A
C256        C973   1.483       .  S
O261        C264   1.266       .  A
O261       Cd266   2.476       .  S
C262        O271   1.266       .  A
C262        O267   1.265       .  A
C262        C368   1.480       .  S
O263        C269   1.267       .  A
O263       Cd266   2.495       .  S
C264        O272   1.265       .  A
C264        C445   1.478       .  S
C265        O270   1.265       .  A
C265        O268   1.265       .  A
C265        C379   1.483       .  S
Cd266       O273   2.451       .  S
Cd266       O272   2.454       .  S
Cd266       O271   2.467       .  S
Cd266       O267   2.470       .  S
Cd266       O270   2.488       .  S
Cd266       O268   2.476       .  S
C269        O273   1.264       .  A
C269        C720   1.482       .  S
O274        C277   1.264       .  A
O274       Cd279   2.474       .  S
C275        O284   1.266       .  A
C275        O280   1.265       .  A
C275        C335   1.480       .  S
O276        C282   1.266       .  A
O276       Cd279   2.499       .  S
C277        O285   1.265       .  A
C277        C654   1.483       .  S
C278        O283   1.266       .  A
C278        O281   1.266       .  A
C278        C390   1.482       .  S
Cd279       O286   2.449       .  S
Cd279       O285   2.485       .  S
Cd279       O284   2.476       .  S
Cd279       O280   2.467       .  S
Cd279       O283   2.473       .  S
Cd279       O281   2.475       .  S
C282        O286   1.263       .  A
C282       C1105   1.480       .  S
O287        C290   1.265       .  A
O287       Cd292   2.466       .  S
C288        O297   1.265       .  A
C288        O293   1.266       .  A
C288        C401   1.478       .  S
O289        C295   1.266       .  A
O289       Cd292   2.493       .  S
C290        O298   1.266       .  A
C290        C357   1.480       .  S
C291        O296   1.266       .  A
C291        O294   1.266       .  A
C291        C313   1.483       .  S
Cd292       O299   2.464       .  S
Cd292       O298   2.474       .  S
Cd292       O297   2.457       .  S
Cd292       O293   2.471       .  S
Cd292       O296   2.480       .  S
Cd292       O294   2.476       .  S
C295        O299   1.263       .  A
C295        C786   1.482       .  S
O300        C303   1.265       .  A
O300       Cd305   2.480       .  S
C301        O310   1.267       .  A
C301        O306   1.266       .  A
C301        C346   1.479       .  S
O302        C308   1.266       .  A
O302       Cd305   2.486       .  S
C303        O311   1.265       .  A
C303        C555   1.481       .  S
C304        O309   1.265       .  A
C304        O307   1.262       .  A
C304       C1226   1.484       .  S
Cd305       O312   2.477       .  S
Cd305       O311   2.470       .  S
Cd305       O310   2.468       .  S
Cd305       O306   2.455       .  S
Cd305       O309   2.505       .  S
Cd305       O307   2.475       .  S
C308        O312   1.265       .  A
C308        C324   1.483       .  S
C313        C314   1.407       .  A
C313        C318   1.408       .  A
C314        C315   1.399       .  A
C314        H327   1.083       .  S
C315        C316   1.400       .  A
C315        H328   1.084       .  S
C316        C317   1.401       .  A
C316        C319   1.444       .  S
C317        C318   1.402       .  A
C317        H329   1.083       .  S
C318        H330   1.083       .  S
C319        C320   1.209       .  T
C320        C321   1.445       .  S
C321        C322   1.401       .  A
C321        C326   1.401       .  A
C322        C323   1.400       .  A
C322        H331   1.083       .  S
C323        C324   1.407       .  A
C323        H332   1.083       .  S
C324        C325   1.407       .  A
C325        C326   1.401       .  A
C325        H333   1.083       .  S
C326        H334   1.084       .  S
C335        C336   1.407       .  A
C335        C340   1.407       .  A
C336        C337   1.399       .  A
C336        H349   1.083       .  S
C337        C338   1.400       .  A
C337        H350   1.084       .  S
C338        C339   1.400       .  A
C338        C341   1.440       .  S
C339        C340   1.400       .  A
C339        H351   1.083       .  S
C340        H352   1.083       .  S
C341        C342   1.206       .  T
C342        C343   1.440       .  S
C343        C344   1.400       .  A
C343        C348   1.399       .  A
C344        C345   1.400       .  A
C344        H353   1.084       .  S
C345        C346   1.407       .  A
C345        H354   1.083       .  S
C346        C347   1.406       .  A
C347        C348   1.397       .  A
C347        H355   1.083       .  S
C348        H356   1.084       .  S
C357        C358   1.406       .  A
C357        C362   1.407       .  A
C358        C359   1.398       .  A
C358        H371   1.083       .  S
C359        C360   1.399       .  A
C359        H372   1.084       .  S
C360        C361   1.401       .  A
C360        C363   1.441       .  S
C361        C362   1.400       .  A
C361        H373   1.083       .  S
C362        H374   1.083       .  S
C363        C364   1.207       .  T
C364        C365   1.441       .  S
C365        C366   1.399       .  A
C365        C370   1.400       .  A
C366        C367   1.399       .  A
C366        H375   1.084       .  S
C367        C368   1.407       .  A
C367        H376   1.083       .  S
C368        C369   1.407       .  A
C369        C370   1.399       .  A
C369        H377   1.083       .  S
C370        H378   1.083       .  S
C379        C380   1.407       .  A
C379        C384   1.408       .  A
C380        C381   1.399       .  A
C380        H393   1.083       .  S
C381        C382   1.400       .  A
C381        H394   1.083       .  S
C382        C383   1.401       .  A
C382        C385   1.443   1_556  S
C383        C384   1.402       .  A
C383        H395   1.083   1_556  S
C384        H396   1.082       .  S
C385        C386   1.208       .  T
C386        C387   1.443       .  S
C387        C388   1.400       .  A
C387        C392   1.400       .  A
C388        C389   1.400       .  A
C388        H397   1.084       .  S
C389        C390   1.407       .  A
C389        H398   1.083       .  S
C390        C391   1.407       .  A
C391        C392   1.400       .  A
C391        H399   1.083       .  S
C392        H400   1.083       .  S
C401        C402   1.406       .  A
C401        C406   1.407       .  A
C402        C403   1.397       .  A
C402        H415   1.083       .  S
C403        C404   1.399       .  A
C403        H416   1.083       .  S
C404        C405   1.400       .  A
C404        C407   1.439       .  S
C405        C406   1.399       .  A
C405        H417   1.084       .  S
C406        H418   1.083       .  S
C407        C408   1.206       .  T
C408        C409   1.440       .  S
C409        C410   1.399       .  A
C409        C414   1.400       .  A
C410        C411   1.398       .  A
C410        H419   1.083       .  S
C411        C412   1.407       .  A
C411        H420   1.083       .  S
C412        C413   1.407       .  A
C413        C414   1.400       .  A
C413        H421   1.083       .  S
C414        H422   1.084       .  S
C423        C424   1.407       .  A
C423        C428   1.407       .  A
C424        C425   1.400       .  A
C424        H437   1.083       .  S
C425        C426   1.401       .  A
C425        H438   1.084       .  S
C426        C427   1.400       .  A
C426        C429   1.443       .  S
C427        C428   1.399       .  A
C427        H439   1.083       .  S
C428        H440   1.083       .  S
C429        C430   1.208       .  T
C430        C431   1.443       .  S
C431        C432   1.399       .  A
C431        C436   1.402       .  A
C432        C433   1.398       .  A
C432        H441   1.084       .  S
C433        C434   1.407       .  A
C433        H442   1.083       .  S
C434        C435   1.408       .  A
C435        C436   1.402       .  A
C435        H443   1.083       .  S
C436        H444   1.083       .  S
C445        C446   1.406       .  A
C445        C450   1.407       .  A
C446        C447   1.397       .  A
C446        H459   1.083       .  S
C447        C448   1.399       .  A
C447        H460   1.084   1_556  S
C448        C449   1.400       .  A
C448        C451   1.439       .  S
C449        C450   1.400       .  A
C449        H461   1.083       .  S
C450        H462   1.083       .  S
C451        C452   1.206   1_556  T
C452        C453   1.440       .  S
C453        C454   1.400       .  A
C453        C458   1.400       .  A
C454        C455   1.399       .  A
C454        H463   1.084   1_554  S
C455        C456   1.406       .  A
C455        H464   1.083       .  S
C456        C457   1.407       .  A
C457        C458   1.399       .  A
C457        H465   1.083       .  S
C458        H466   1.083       .  S
C467        C468   1.408       .  A
C467        C472   1.407       .  A
C468        C469   1.401       .  A
C468        H481   1.083       .  S
C469        C470   1.401       .  A
C469        H482   1.083       .  S
C470        C471   1.400       .  A
C470        C473   1.444       .  S
C471        C472   1.400       .  A
C471        H483   1.084       .  S
C472        H484   1.083       .  S
C473        C474   1.209       .  T
C474        C475   1.444       .  S
C475        C476   1.401       .  A
C475        C480   1.400       .  A
C476        C477   1.401       .  A
C476        H485   1.083       .  S
C477        C478   1.407       .  A
C477        H486   1.083       .  S
C478        C479   1.407       .  A
C479        C480   1.400       .  A
C479        H487   1.083       .  S
C480        H488   1.084       .  S
C489        C490   1.407       .  A
C489        C494   1.407       .  A
C490        C491   1.401       .  A
C490        H503   1.083       .  S
C491        C492   1.401       .  A
C491        H504   1.083       .  S
C492        C493   1.401       .  A
C492        C495   1.445       .  S
C493        C494   1.400       .  A
C493        H505   1.084       .  S
C494        H506   1.083       .  S
C495        C496   1.209       .  T
C496        C497   1.445       .  S
C497        C498   1.400       .  A
C497        C502   1.401       .  A
C498        C499   1.400       .  A
C498        H507   1.084       .  S
C499        C500   1.407       .  A
C499        H508   1.083       .  S
C500        C501   1.407       .  A
C501        C502   1.401       .  A
C501        H509   1.083       .  S
C502        H510   1.083       .  S
C511        C512   1.407       .  A
C511        C516   1.407       .  A
C512        C513   1.403       .  A
C512        H525   1.083       .  S
C513        C514   1.402       .  A
C513        H526   1.083   1_554  S
C514        C515   1.400       .  A
C514        C517   1.445       .  S
C515        C516   1.399       .  A
C515        H527   1.084       .  S
C516        H528   1.083       .  S
C517        C518   1.209   1_554  T
C518        C519   1.445       .  S
C519        C520   1.400       .  A
C519        C524   1.402       .  A
C520        C521   1.399       .  A
C520        H529   1.084       .  S
C521        C522   1.407       .  A
C521        H530   1.083       .  S
C522        C523   1.407       .  A
C523        C524   1.402       .  A
C523        H531   1.083       .  S
C524        H532   1.083       .  S
C533        C534   1.407       .  A
C533        C538   1.406       .  A
C534        C535   1.400       .  A
C534        H547   1.083       .  S
C535        C536   1.401       .  A
C535        H548   1.083       .  S
C536        C537   1.398       .  A
C536        C539   1.438       .  S
C537        C538   1.396       .  A
C537        H549   1.084       .  S
C538        H550   1.083       .  S
C539        C540   1.205       .  T
C540        C541   1.438       .  S
C541        C542   1.401       .  A
C541        C546   1.398       .  A
C542        C543   1.400       .  A
C542        H551   1.084       .  S
C543        C544   1.407       .  A
C543        H552   1.082       .  S
C544        C545   1.406       .  A
C545        C546   1.396       .  A
C545        H553   1.084       .  S
C546        H554   1.083       .  S
C555        C556   1.406       .  A
C555        C560   1.408       .  A
C556        C557   1.398       .  A
C556        H569   1.084       .  S
C557        C558   1.400       .  A
C557        H570   1.083       .  S
C558        C559   1.401       .  A
C558        C561   1.442       .  S
C559        C560   1.401       .  A
C559        H571   1.084       .  S
C560        H572   1.082       .  S
C561        C562   1.207       .  T
C562        C563   1.442       .  S
C563        C564   1.400       .  A
C563        C568   1.400       .  A
C564        C565   1.400       .  A
C564        H573   1.083       .  S
C565        C566   1.407       .  A
C565        H574   1.083       .  S
C566        C567   1.406       .  A
C567        C568   1.398       .  A
C567        H575   1.083       .  S
C568        H576   1.084       .  S
C577        C578   1.408       .  A
C577        C582   1.405       .  A
C578        C579   1.401       .  A
C578        H591   1.082       .  S
C579        C580   1.401       .  A
C579        H592   1.084       .  S
C580        C581   1.399       .  A
C580        C583   1.441       .  S
C581        C582   1.397       .  A
C581        H593   1.083       .  S
C582        H594   1.083       .  S
C583        C584   1.207       .  T
C584        C585   1.441       .  S
C585        C586   1.400       .  A
C585        C590   1.400       .  A
C586        C587   1.400       .  A
C586        H595   1.084       .  S
C587        C588   1.407       .  A
C587        H596   1.083       .  S
C588        C589   1.407       .  A
C589        C590   1.398       .  A
C589        H597   1.083       .  S
C590        H598   1.083       .  S
C599        C600   1.406       .  A
C599        C604   1.407       .  A
C600        C601   1.399       .  A
C600        H613   1.083       .  S
C601        C602   1.400       .  A
C601        H614   1.084       .  S
C602        C603   1.399       .  A
C602        C605   1.440       .  S
C603        C604   1.398       .  A
C603        H615   1.084   1_554  S
C604        H616   1.083       .  S
C605        C606   1.206   1_554  T
C606        C607   1.441       .  S
C607        C608   1.400       .  A
C607        C612   1.399       .  A
C608        C609   1.400       .  A
C608        H617   1.084       .  S
C609        C610   1.406       .  A
C609        H618   1.083       .  S
C610        C611   1.407       .  A
C611        C612   1.398       .  A
C611        H619   1.083       .  S
C612        H620   1.083   1_556  S
C621        C622   1.407       .  A
C621        C626   1.407       .  A
C622        C623   1.399       .  A
C622        H635   1.083       .  S
C623        C624   1.399       .  A
C623        H636   1.084       .  S
C624        C625   1.401       .  A
C624        C627   1.442       .  S
C625        C626   1.400       .  A
C625        H637   1.083       .  S
C626        H638   1.083       .  S
C627        C628   1.207       .  T
C628        C629   1.442       .  S
C629        C630   1.400       .  A
C629        C634   1.401       .  A
C630        C631   1.399       .  A
C630        H639   1.084       .  S
C631        C632   1.406       .  A
C631        H640   1.083       .  S
C632        C633   1.407       .  A
C633        C634   1.400       .  A
C633        H641   1.083       .  S
C634        H642   1.083       .  S
C643        C644   1.407       .  A
C643        C648   1.407       .  A
C644        C645   1.400       .  A
C644        H657   1.082       .  S
C645        C646   1.400       .  A
C645        H658   1.085       .  S
C646        C647   1.401       .  A
C646        C649   1.445       .  S
C647        C648   1.401       .  A
C647        H659   1.082   1_556  S
C648        H660   1.084       .  S
C649        C650   1.209   1_556  T
C650        C651   1.444       .  S
C651        C652   1.401       .  A
C651        C656   1.400       .  A
C652        C653   1.401       .  A
C652        H661   1.082   1_554  S
C653        C654   1.407       .  A
C653        H662   1.084       .  S
C654        C655   1.408       .  A
C655        C656   1.400       .  A
C655        H663   1.082       .  S
C656        H664   1.085       .  S
C665        C666   1.408       .  A
C665        C670   1.408       .  A
C666        C667   1.402       .  A
C666        H679   1.083       .  S
C667        C668   1.402       .  A
C667        H680   1.083       .  S
C668        C669   1.400       .  A
C668        C671   1.446       .  S
C669        C670   1.401       .  A
C669        H681   1.084       .  S
C670        H682   1.083       .  S
C671        C672   1.210       .  T
C672        C673   1.446       .  S
C673        C674   1.402       .  A
C673        C678   1.400       .  A
C674        C675   1.402       .  A
C674        H683   1.083       .  S
C675        C676   1.408       .  A
C675        H684   1.083       .  S
C676        C677   1.407       .  A
C677        C678   1.400       .  A
C677        H685   1.083       .  S
C678        H686   1.084       .  S
C687        C688   1.407       .  A
C687        C692   1.406       .  A
C688        C689   1.401       .  A
C688        H701   1.082       .  S
C689        C690   1.401       .  A
C689        H702   1.084   1_554  S
C690        C691   1.399       .  A
C690        C693   1.440       .  S
C691        C692   1.397       .  A
C691        H703   1.083       .  S
C692        H704   1.084       .  S
C693        C694   1.206   1_554  T
C694        C695   1.441       .  S
C695        C696   1.400       .  A
C695        C700   1.400       .  A
C696        C697   1.400       .  A
C696        H705   1.083       .  S
C697        C698   1.407       .  A
C697        H706   1.083       .  S
C698        C699   1.406       .  A
C699        C700   1.398       .  A
C699        H707   1.083       .  S
C700        H708   1.083       .  S
C709        C710   1.407       .  A
C709        C714   1.407       .  A
C710        C711   1.397       .  A
C710        H723   1.083       .  S
C711        C712   1.399       .  A
C711        H724   1.083       .  S
C712        C713   1.401       .  A
C712        C715   1.442       .  S
C713        C714   1.402       .  A
C713        H725   1.084       .  S
C714        H726   1.082       .  S
C715        C716   1.208       .  T
C716        C717   1.442       .  S
C717        C718   1.402       .  A
C717        C722   1.399       .  A
C718        C719   1.403       .  A
C718        H727   1.083       .  S
C719        C720   1.407       .  A
C719        H728   1.083       .  S
C720        C721   1.407       .  A
C721        C722   1.397       .  A
C721        H729   1.083       .  S
C722        H730   1.084       .  S
C731        C732   1.407       .  A
C731        C736   1.406       .  A
C732        C733   1.396       .  A
C732        H745   1.083       .  S
C733        C734   1.399       .  A
C733        H746   1.083       .  S
C734        C735   1.401       .  A
C734        C737   1.440       .  S
C735        C736   1.401       .  A
C735        H747   1.084       .  S
C736        H748   1.082       .  S
C737        C738   1.206   1_565  T
C738        C739   1.440       .  S
C739        C740   1.401       .  A
C739        C744   1.399       .  A
C740        C741   1.400       .  A
C740        H749   1.083       .  S
C741        C742   1.406       .  A
C741        H750   1.083       .  S
C742        C743   1.406       .  A
C743        C744   1.396       .  A
C743        H751   1.083       .  S
C744        H752   1.084       .  S
C753        C754   1.407       .  A
C753        C758   1.408       .  A
C754        C755   1.399       .  A
C754        H767   1.082       .  S
C755        C756   1.400       .  A
C755        H768   1.085       .  S
C756        C757   1.402       .  A
C756        C759   1.445       .  S
C757        C758   1.403       .  A
C757        H769   1.082   1_554  S
C758        H770   1.084       .  S
C759        C760   1.209   1_554  T
C760        C761   1.445       .  S
C761        C762   1.401       .  A
C761        C766   1.401       .  A
C762        C763   1.401       .  A
C762        H771   1.084   1_556  S
C763        C764   1.407       .  A
C763        H772   1.082       .  S
C764        C765   1.407       .  A
C765        C766   1.400       .  A
C765        H773   1.083       .  S
C766        H774   1.083       .  S
C775        C776   1.408       .  A
C775        C780   1.406       .  A
C776        C777   1.403       .  A
C776        H789   1.082       .  S
C777        C778   1.402       .  A
C777        H790   1.083       .  S
C778        C779   1.399       .  A
C778        C781   1.443       .  S
C779        C780   1.396       .  A
C779        H791   1.083       .  S
C780        H792   1.083       .  S
C781        C782   1.208       .  T
C782        C783   1.443       .  S
C783        C784   1.400       .  A
C783        C788   1.401       .  A
C784        C785   1.398       .  A
C784        H793   1.084       .  S
C785        C786   1.407       .  A
C785        H794   1.083       .  S
C786        C787   1.407       .  A
C787        C788   1.402       .  A
C787        H795   1.083       .  S
C788        H796   1.083       .  S
C797        C798   1.406       .  A
C797        C802   1.407       .  A
C798        C799   1.399       .  A
C798        H811   1.083       .  S
C799        C800   1.400       .  A
C799        H812   1.083       .  S
C800        C801   1.399       .  A
C800        C803   1.441       .  S
C801        C802   1.398       .  A
C801        H813   1.084       .  S
C802        H814   1.082       .  S
C803        C804   1.207       .  T
C804        C805   1.441       .  S
C805        C806   1.400       .  A
C805        C810   1.400       .  A
C806        C807   1.400       .  A
C806        H815   1.084       .  S
C807        C808   1.407       .  A
C807        H816   1.082       .  S
C808        C809   1.407       .  A
C809        C810   1.399       .  A
C809        H817   1.083       .  S
C810        H818   1.083       .  S
C819        C820   1.406       .  A
C819        C824   1.406       .  A
C820        C821   1.394       .  A
C820        H833   1.083       .  S
C821        C822   1.398       .  A
C821        H834   1.083       .  S
C822        C823   1.400       .  A
C822        C825   1.437       .  S
C823        C824   1.401       .  A
C823        H835   1.084       .  S
C824        H836   1.082       .  S
C825        C826   1.204   1_565  T
C826        C827   1.437       .  S
C827        C828   1.400       .  A
C827        C832   1.399       .  A
C828        C829   1.399       .  A
C828        H837   1.083       .  S
C829        C830   1.407       .  A
C829        H838   1.083       .  S
C830        C831   1.406       .  A
C831        C832   1.395       .  A
C831        H839   1.083       .  S
C832        H840   1.084       .  S
C841        C842   1.407       .  A
C841        C846   1.407       .  A
C842        C843   1.400       .  A
C842        H855   1.083       .  S
C843        C844   1.401       .  A
C843        H856   1.084       .  S
C844        C845   1.400       .  A
C844        C847   1.442       .  S
C845        C846   1.399       .  A
C845        H857   1.083       .  S
C846        H858   1.083       .  S
C847        C848   1.208       .  T
C848        C849   1.442       .  S
C849        C850   1.400       .  A
C849        C854   1.401       .  A
C850        C851   1.399       .  A
C850        H859   1.084       .  S
C851        C852   1.407       .  A
C851        H860   1.083       .  S
C852        C853   1.406       .  A
C853        C854   1.400       .  A
C853        H861   1.083       .  S
C854        H862   1.083       .  S
C863        C864   1.407       .  A
C863        C868   1.407       .  A
C864        C865   1.399       .  A
C864        H877   1.083       .  S
C865        C866   1.400       .  A
C865        H878   1.084       .  S
C866        C867   1.401       .  A
C866        C869   1.443       .  S
C867        C868   1.401       .  A
C867        H879   1.083       .  S
C868        H880   1.083       .  S
C869        C870   1.208       .  T
C870        C871   1.443       .  S
C871        C872   1.401       .  A
C871        C876   1.400       .  A
C872        C873   1.401       .  A
C872        H881   1.084       .  S
C873        C874   1.407       .  A
C873        H882   1.083       .  S
C874        C875   1.407       .  A
C875        C876   1.398       .  A
C875        H883   1.083       .  S
C876        H884   1.083       .  S
C885        C886   1.407       .  A
C885        C890   1.407       .  A
C886        C887   1.404       .  A
C886        H899   1.083       .  S
C887        C888   1.403       .  A
C887        H900   1.083       .  S
C888        C889   1.398       .  A
C888        C891   1.444       .  S
C889        C890   1.397       .  A
C889        H901   1.084       .  S
C890        H902   1.083       .  S
C891        C892   1.209       .  T
C892        C893   1.444       .  S
C893        C894   1.400       .  A
C893        C898   1.401       .  A
C894        C895   1.399       .  A
C894        H903   1.083       .  S
C895        C896   1.407       .  A
C895        H904   1.083       .  S
C896        C897   1.407       .  A
C897        C898   1.403       .  A
C897        H905   1.082       .  S
C898        H906   1.084       .  S
C907        C908   1.407       .  A
C907        C912   1.407       .  A
C908        C909   1.398       .  A
C908        H921   1.082       .  S
C909        C910   1.399       .  A
C909        H922   1.085       .  S
C910        C911   1.400       .  A
C910        C913   1.440       .  S
C911        C912   1.399       .  A
C911        H923   1.082   1_556  S
C912        H924   1.084       .  S
C913        C914   1.206   1_556  T
C914        C915   1.440       .  S
C915        C916   1.401   1_554  A
C915        C920   1.399       .  A
C916        C917   1.399   1_556  A
C916        H925   1.082       .  S
C917        C918   1.406       .  A
C917        H926   1.084       .  S
C918        C919   1.407       .  A
C919        C920   1.398       .  A
C919        H927   1.082       .  S
C920        H928   1.085       .  S
C929        C930   1.406       .  A
C929        C934   1.408       .  A
C930        C931   1.396       .  A
C930        H943   1.083       .  S
C931        C932   1.399       .  A
C931        H944   1.084       .  S
C932        C933   1.402       .  A
C932        C935   1.442       .  S
C933        C934   1.403       .  A
C933        H945   1.083       .  S
C934        H946   1.083       .  S
C935        C936   1.208   1_655  T
C936        C937   1.442       .  S
C937        C938   1.401       .  A
C937        C942   1.399       .  A
C938        C939   1.402       .  A
C938        H947   1.083       .  S
C939        C940   1.408       .  A
C939        H948   1.083       .  S
C940        C941   1.406       .  A
C941        C942   1.397       .  A
C941        H949   1.083       .  S
C942        H950   1.084       .  S
C951        C952   1.407       .  A
C951        C956   1.407       .  A
C952        C953   1.397       .  A
C952        H965   1.083       .  S
C953        C954   1.399       .  A
C953        H966   1.084       .  S
C954        C955   1.402       .  A
C954        C957   1.442       .  S
C955        C956   1.403       .  A
C955        H967   1.083       .  S
C956        H968   1.083       .  S
C957        C958   1.207   1_554  T
C958        C959   1.442       .  S
C959        C960   1.400       .  A
C959        C964   1.400       .  A
C960        C961   1.398       .  A
C960        H969   1.083       .  S
C961        C962   1.407       .  A
C961        H970   1.083       .  S
C962        C963   1.407       .  A
C963        C964   1.400       .  A
C963        H971   1.082       .  S
C964        H972   1.084       .  S
C973        C974   1.406       .  A
C973        C978   1.408       .  A
C974        C975   1.398       .  A
C974        H987   1.083       .  S
C975        C976   1.400       .  A
C975        H988   1.083       .  S
C976        C977   1.402       .  A
C976        C979   1.445       .  S
C977        C978   1.403       .  A
C977        H989   1.083       .  S
C978        H990   1.082       .  S
C979        C980   1.209       .  T
C980        C981   1.444       .  S
C981        C982   1.402       .  A
C981        C986   1.399       .  A
C982        C983   1.403       .  A
C982        H991   1.083       .  S
C983        C984   1.407       .  A
C983        H992   1.083       .  S
C984        C985   1.407       .  A
C985        C986   1.397       .  A
C985        H993   1.083       .  S
C986        H994   1.084       .  S
C995        C996   1.406       .  A
C995       C1000   1.407       .  A
C996        C997   1.398       .  A
C996       H1009   1.083       .  S
C997        C998   1.399       .  A
C997       H1010   1.083       .  S
C998        C999   1.401       .  A
C998       C1001   1.442       .  S
C999       C1000   1.401       .  A
C999       H1011   1.084       .  S
C1000      H1012   1.082       .  S
C1001      C1002   1.208       .  T
C1002      C1003   1.442       .  S
C1003      C1004   1.400       .  A
C1003      C1008   1.401       .  A
C1004      C1005   1.399       .  A
C1004      H1013   1.083       .  S
C1005      C1006   1.406       .  A
C1005      H1014   1.084       .  S
C1006      C1007   1.408       .  A
C1007      C1008   1.401       .  A
C1007      H1015   1.082       .  S
C1008      H1016   1.084       .  S
C1017      C1018   1.406       .  A
C1017      C1022   1.407       .  A
C1018      C1019   1.399       .  A
C1018      H1031   1.083       .  S
C1019      C1020   1.400       .  A
C1019      H1032   1.083       .  S
C1020      C1021   1.400       .  A
C1020      C1023   1.441       .  S
C1021      C1022   1.399       .  A
C1021      H1033   1.083       .  S
C1022      H1034   1.083       .  S
C1023      C1024   1.207       .  T
C1024      C1025   1.441       .  S
C1025      C1026   1.399       .  A
C1025      C1030   1.400       .  A
C1026      C1027   1.398       .  A
C1026      H1035   1.084       .  S
C1027      C1028   1.407       .  A
C1027      H1036   1.083       .  S
C1028      C1029   1.407       .  A
C1029      C1030   1.400       .  A
C1029      H1037   1.083       .  S
C1030      H1038   1.083       .  S
C1039      C1040   1.406       .  A
C1039      C1044   1.407       .  A
C1040      C1041   1.396       .  A
C1040      H1053   1.083       .  S
C1041      C1042   1.398       .  A
C1041      H1054   1.084       .  S
C1042      C1043   1.401       .  A
C1042      C1045   1.440       .  S
C1043      C1044   1.402       .  A
C1043      H1055   1.083       .  S
C1044      H1056   1.083       .  S
C1045      C1046   1.206   1_455  T
C1046      C1047   1.440       .  S
C1047      C1048   1.401       .  A
C1047      C1052   1.399       .  A
C1048      C1049   1.401       .  A
C1048      H1057   1.083       .  S
C1049      C1050   1.407       .  A
C1049      H1058   1.083       .  S
C1050      C1051   1.406       .  A
C1051      C1052   1.396       .  A
C1051      H1059   1.083       .  S
C1052      H1060   1.084       .  S
C1061      C1062   1.407       .  A
C1061      C1066   1.407       .  A
C1062      C1063   1.401       .  A
C1062      H1075   1.083       .  S
C1063      C1064   1.401       .  A
C1063      H1076   1.083       .  S
C1064      C1065   1.400       .  A
C1064      C1067   1.444       .  S
C1065      C1066   1.399       .  A
C1065      H1077   1.084       .  S
C1066      H1078   1.083       .  S
C1067      C1068   1.208       .  T
C1068      C1069   1.444       .  S
C1069      C1070   1.400       .  A
C1069      C1074   1.401       .  A
C1070      C1071   1.400       .  A
C1070      H1079   1.084       .  S
C1071      C1072   1.407       .  A
C1071      H1080   1.083       .  S
C1072      C1073   1.408       .  A
C1073      C1074   1.401       .  A
C1073      H1081   1.083       .  S
C1074      H1082   1.083       .  S
C1083      C1084   1.407       .  A
C1083      C1088   1.407       .  A
C1084      C1085   1.399       .  A
C1084      H1097   1.084       .  S
C1085      C1086   1.400       .  A
C1085      H1098   1.083       .  S
C1086      C1087   1.402       .  A
C1086      C1089   1.445       .  S
C1087      C1088   1.403       .  A
C1087      H1099   1.084       .  S
C1088      H1100   1.082       .  S
C1089      C1090   1.209       .  T
C1090      C1091   1.445       .  S
C1091      C1092   1.400       .  A
C1091      C1096   1.401       .  A
C1092      C1093   1.400       .  A
C1092      H1101   1.084       .  S
C1093      C1094   1.408       .  A
C1093      H1102   1.083       .  S
C1094      C1095   1.407       .  A
C1095      C1096   1.401       .  A
C1095      H1103   1.083       .  S
C1096      H1104   1.083       .  S
C1105      C1106   1.406       .  A
C1105      C1110   1.408       .  A
C1106      C1107   1.396       .  A
C1106      H1119   1.083       .  S
C1107      C1108   1.399       .  A
C1107      H1120   1.084       .  S
C1108      C1109   1.401       .  A
C1108      C1111   1.441       .  S
C1109      C1110   1.403       .  A
C1109      H1121   1.083       .  S
C1110      H1122   1.083       .  S
C1111      C1112   1.207   1_655  T
C1112      C1113   1.441       .  S
C1113      C1114   1.402       .  A
C1113      C1118   1.398       .  A
C1114      C1115   1.403       .  A
C1114      H1123   1.083       .  S
C1115      C1116   1.407       .  A
C1115      H1124   1.083       .  S
C1116      C1117   1.406       .  A
C1117      C1118   1.395       .  A
C1117      H1125   1.083       .  S
C1118      H1126   1.084       .  S
C1127      C1128   1.407       .  A
C1127      C1132   1.407       .  A
C1128      C1129   1.399       .  A
C1128      H1141   1.083       .  S
C1129      C1130   1.400       .  A
C1129      H1142   1.084       .  S
C1130      C1131   1.401       .  A
C1130      C1133   1.444       .  S
C1131      C1132   1.402       .  A
C1131      H1143   1.083       .  S
C1132      H1144   1.083       .  S
C1133      C1134   1.209   1_554  T
C1134      C1135   1.444       .  S
C1135      C1136   1.400       .  A
C1135      C1140   1.401       .  A
C1136      C1137   1.400       .  A
C1136      H1145   1.084   1_556  S
C1137      C1138   1.408       .  A
C1137      H1146   1.083       .  S
C1138      C1139   1.407       .  A
C1139      C1140   1.401       .  A
C1139      H1147   1.083       .  S
C1140      H1148   1.083       .  S
C1149      C1150   1.406       .  A
C1149      C1154   1.407       .  A
C1150      C1151   1.395       .  A
C1150      H1163   1.083       .  S
C1151      C1152   1.398       .  A
C1151      H1164   1.084       .  S
C1152      C1153   1.402       .  A
C1152      C1155   1.440       .  S
C1153      C1154   1.402       .  A
C1153      H1165   1.083       .  S
C1154      H1166   1.083       .  S
C1155      C1156   1.207   1_565  T
C1156      C1157   1.441       .  S
C1157      C1158   1.400       .  A
C1157      C1162   1.400       .  A
C1158      C1159   1.401       .  A
C1158      H1167   1.084       .  S
C1159      C1160   1.407       .  A
C1159      H1168   1.083       .  S
C1160      C1161   1.407       .  A
C1161      C1162   1.398       .  A
C1161      H1169   1.083       .  S
C1162      H1170   1.083       .  S
C1171      C1172   1.406       .  A
C1171      C1176   1.407       .  A
C1172      C1173   1.400       .  A
C1172      H1185   1.083       .  S
C1173      C1174   1.401       .  A
C1173      H1186   1.083       .  S
C1174      C1175   1.399       .  A
C1174      C1177   1.440       .  S
C1175      C1176   1.398       .  A
C1175      H1187   1.084   1_556  S
C1176      H1188   1.083       .  S
C1177      C1178   1.206   1_556  T
C1178      C1179   1.440       .  S
C1179      C1180   1.400       .  A
C1179      C1184   1.400       .  A
C1180      C1181   1.399       .  A
C1180      H1189   1.084       .  S
C1181      C1182   1.407       .  A
C1181      H1190   1.083       .  S
C1182      C1183   1.407       .  A
C1183      C1184   1.398       .  A
C1183      H1191   1.083       .  S
C1184      H1192   1.083   1_554  S
C1193      C1194   1.407       .  A
C1193      C1198   1.407       .  A
C1194      C1195   1.400       .  A
C1194      H1207   1.083       .  S
C1195      C1196   1.400       .  A
C1195      H1208   1.084   1_554  S
C1196      C1197   1.399       .  A
C1196      C1199   1.440       .  S
C1197      C1198   1.398       .  A
C1197      H1209   1.083       .  S
C1198      H1210   1.083       .  S
C1199      C1200   1.206   1_554  T
C1200      C1201   1.439       .  S
C1201      C1202   1.400       .  A
C1201      C1206   1.399       .  A
C1202      C1203   1.399       .  A
C1202      H1211   1.084   1_556  S
C1203      C1204   1.406       .  A
C1203      H1212   1.083       .  S
C1204      C1205   1.407       .  A
C1205      C1206   1.398       .  A
C1205      H1213   1.083       .  S
C1206      H1214   1.083       .  S
C1215      C1216   1.406       .  A
C1215      C1220   1.408       .  A
C1216      C1217   1.397       .  A
C1216      H1229   1.083       .  S
C1217      C1218   1.399       .  A
C1217      H1230   1.084       .  S
C1218      C1219   1.402       .  A
C1218      C1221   1.444       .  S
C1219      C1220   1.404       .  A
C1219      H1231   1.083       .  S
C1220      H1232   1.083       .  S
C1221      C1222   1.209   1_455  T
C1222      C1223   1.444       .  S
C1223      C1224   1.401       .  A
C1223      C1228   1.400       .  A
C1224      C1225   1.402       .  A
C1224      H1233   1.083       .  S
C1225      C1226   1.407       .  A
C1225      H1234   1.083       .  S
C1226      C1227   1.407       .  A
C1227      C1228   1.399       .  A
C1227      H1235   1.083       .  S
C1228      H1236   1.083       .  S
C1237      C1238   1.407       .  A
C1237      C1242   1.407       .  A
C1238      C1239   1.399       .  A
C1238      H1251   1.084       .  S
C1239      C1240   1.400       .  A
C1239      H1252   1.082       .  S
C1240      C1241   1.401       .  A
C1240      C1243   1.444       .  S
C1241      C1242   1.401       .  A
C1241      H1253   1.084       .  S
C1242      H1254   1.082       .  S
C1243      C1244   1.208       .  T
C1244      C1245   1.444       .  S
C1245      C1246   1.401       .  A
C1245      C1250   1.400       .  A
C1246      C1247   1.401       .  A
C1246      H1255   1.084       .  S
C1247      C1248   1.408       .  A
C1247      H1256   1.082       .  S
C1248      C1249   1.407       .  A
C1249      C1250   1.400       .  A
C1249      H1257   1.084       .  S
C1250      H1258   1.082       .  S
C1259      C1260   1.406       .  A
C1259      C1264   1.407       .  A
C1260      C1261   1.400       .  A
C1260      H1273   1.083       .  S
C1261      C1262   1.401       .  A
C1261      H1274   1.084       .  S
C1262      C1263   1.400       .  A
C1262      C1265   1.443       .  S
C1263      C1264   1.400       .  A
C1263      H1275   1.083       .  S
C1264      H1276   1.083       .  S
C1265      C1266   1.208       .  T
C1266      C1267   1.443       .  S
C1267      C1268   1.401       .  A
C1267      C1272   1.399       .  A
C1268      C1269   1.402       .  A
C1268      H1277   1.083       .  S
C1269      C1270   1.407       .  A
C1269      H1278   1.083       .  S
C1270      C1271   1.407       .  A
C1271      C1272   1.398       .  A
C1271      H1279   1.083       .  S
C1272      H1280   1.084       .  S
C1281      C1282   1.407       .  A
C1281      C1286   1.407       .  A
C1282      C1283   1.402       .  A
C1282      H1295   1.083       .  S
C1283      C1284   1.401       .  A
C1283      H1296   1.083       .  S
C1284      C1285   1.399       .  A
C1284      C1287   1.442       .  S
C1285      C1286   1.397       .  A
C1285      H1297   1.084       .  S
C1286      H1298   1.083       .  S
C1287      C1288   1.208   1_565  T
C1288      C1289   1.442       .  S
C1289      C1290   1.399       .  A
C1289      C1294   1.401       .  A
C1290      C1291   1.397       .  A
C1290      H1299   1.084       .  S
C1291      C1292   1.406       .  A
C1291      H1300   1.083       .  S
C1292      C1293   1.407       .  A
C1293      C1294   1.402       .  A
C1293      H1301   1.083       .  S
C1294      H1302   1.083       .  S
C1303      C1304   1.407       .  A
C1303      C1308   1.407       .  A
C1304      C1305   1.398       .  A
C1304      H1317   1.083       .  S
C1305      C1306   1.400       .  A
C1305      H1318   1.083       .  S
C1306      C1307   1.400       .  A
C1306      C1309   1.441       .  S
C1307      C1308   1.399       .  A
C1307      H1319   1.084       .  S
C1308      H1320   1.083       .  S
C1309      C1310   1.207       .  T
C1310      C1311   1.441       .  S
C1311      C1312   1.399       .  A
C1311      C1316   1.401       .  A
C1312      C1313   1.399       .  A
C1312      H1321   1.084       .  S
C1313      C1314   1.407       .  A
C1313      H1322   1.083       .  S
C1314      C1315   1.407       .  A
C1315      C1316   1.400       .  A
C1315      H1323   1.083       .  S
C1316      H1324   1.083       .  S
C1325      C1326   1.407       .  A
C1325      C1330   1.407       .  A
C1326      C1327   1.400       .  A
C1326      H1339   1.083       .  S
C1327      C1328   1.400       .  A
C1327      H1340   1.083       .  S
C1328      C1329   1.400       .  A
C1328      C1331   1.441       .  S
C1329      C1330   1.399       .  A
C1329      H1341   1.084       .  S
C1330      H1342   1.083       .  S
C1331      C1332   1.207       .  T
C1332      C1333   1.441       .  S
C1333      C1334   1.400       .  A
C1333      C1338   1.400       .  A
C1334      C1335   1.398       .  A
C1334      H1343   1.083       .  S
C1335      C1336   1.406       .  A
C1335      H1344   1.083       .  S
C1336      C1337   1.407       .  A
C1337      C1338   1.399       .  A
C1337      H1345   1.082       .  S
C1338      H1346   1.084       .  S
C1347      C1348   1.407       .  A
C1347      C1352   1.407       .  A
C1348      C1349   1.402       .  A
C1348      H1361   1.083       .  S
C1349      C1350   1.402       .  A
C1349      H1362   1.084       .  S
C1350      C1351   1.399       .  A
C1350      C1353   1.444       .  S
C1351      C1352   1.398       .  A
C1351      H1363   1.083       .  S
C1352      H1364   1.083       .  S
C1353      C1354   1.209       .  T
C1354      C1355   1.444       .  S
C1355      C1356   1.400       .  A
C1355      C1360   1.401       .  A
C1356      C1357   1.400       .  A
C1356      H1365   1.084       .  S
C1357      C1358   1.407       .  A
C1357      H1366   1.082       .  S
C1358      C1359   1.407       .  A
C1359      C1360   1.401       .  A
C1359      H1367   1.083       .  S
C1360      H1368   1.083       .  S
