geometry optimzed in LAMMPS
_audit_creation_date              2020-12-01 
_audit_creation_method            'lammps2cif' 
_symmetry_space_group_name_H-M    'P1' 
_symmetry_Int_Tables_number       1 
_symmetry_cell_setting            triclinic 
loop_ 
_symmetry_equiv_pos_as_xyz 
  x,y,z 
_cell_length_a                    64.21300486 
_cell_length_b                    64.72809776565913 
_cell_length_c                    26.034830289035245 
_cell_angle_alpha                 89.88803665295592 
_cell_angle_beta                  90.20385948228687 
_cell_angle_gamma                 122.76081153467933 
loop_ 
_atom_site_label 
_atom_site_type_symbol 
_atom_site_fract_x 
_atom_site_fract_y 
_atom_site_fract_z 
_atom_site_charge 
In1        In  0.67369991  0.91991773  0.35971848     1.36900
C2          C  0.65173134  0.94407529  0.36320824     0.77900
O3          O  0.64773649  0.89920224  0.42323723    -0.60600
O4          O  0.68605631  0.92119696  0.44219158    -0.51500
C5          C  0.66536175  0.87788722  0.32591198     0.70600
O6          O  0.65073722  0.88484135  0.31609736    -0.46300
C7          C  0.70820487  0.95069795  0.29400664     0.75300
O8          O  0.64155002  0.92311907  0.34215756    -0.58200
O9          O  0.71299575  0.95040741  0.34131457    -0.48300
O10         O  0.67327510  0.95261475  0.38059069    -0.54600
C11         C  0.66399551  0.90682978  0.45800923     0.85400
O12         O  0.68444703  0.89301473  0.35148763    -0.56500
O13         O  0.68634521  0.93441757  0.28088025    -0.59800
In14       In  0.75665739  0.06301435  0.09199642     1.36900
C15         C  0.70834278  0.03947312  0.09142501     0.77900
O16         O  0.74939721  0.07998130  0.02679054    -0.60600
O17         O  0.76880646  0.06269229  0.00979591    -0.51500
C18         C  0.79120854  0.10780127  0.11900587     0.70600
O19         O  0.76880430  0.09800075  0.13180543    -0.46300
C20         C  0.75776274  0.03134289  0.15522643     0.75300
O21         O  0.72149788  0.05992465  0.11402663    -0.58200
O22         O  0.76098111  0.03116678  0.10723543    -0.48300
O23         O  0.72008420  0.03090765  0.07188062    -0.54600
C24         C  0.75948235  0.07443146  0.99290485     0.85400
O25         O  0.79615503  0.09358108  0.09670031    -0.56500
O26         O  0.75705130  0.04939556  0.17083406    -0.59800
In27       In  0.89924200  0.25560357  0.17637032     1.36900
C28         C  0.94747322  0.27969813  0.18404662     0.77900
O29         O  0.90094663  0.27089250  0.09866430    -0.60600
O30         O  0.89270141  0.28625446  0.16150353    -0.51500
C31         C  0.86531731  0.21123077  0.14467219     0.70600
O32         O  0.88788833  0.22144959  0.13274782    -0.46300
C33         C  0.89582757  0.24340554  0.27459230     0.75300
O34         O  0.93531010  0.25918840  0.16129785    -0.58200
O35         O  0.88695552  0.25564696  0.25828709    -0.48300
O36         O  0.93508413  0.28834951  0.19928002    -0.54600
C37         C  0.89746811  0.28730064  0.11397690     0.85400
O38         O  0.86004443  0.22483649  0.16860641    -0.56500
O39         O  0.90477461  0.23683106  0.24021712    -0.59800
In40       In  0.97189271  0.40270271  0.91015836     1.36900
C41         C  0.00100227  0.38630087  0.89962275     0.77900
O42         O  0.95845874  0.38489997  0.98684168    -0.60600
O43         O  0.93389170  0.36775026  0.92382351    -0.51500
C44         C  0.97771672  0.44366602  0.94518958     0.70600
O45         O  0.99271382  0.43721515  0.95514449    -0.46300
C46         C  0.98183579  0.41776921  0.81352762     0.75300
O47         O  0.00551439  0.40259177  0.93261090    -0.58200
O48         O  0.95996777  0.40150073  0.82799468    -0.48300
O49         O  0.98104465  0.37764150  0.87494451    -0.54600
C50         C  0.93796290  0.36693355  0.97129411     0.85400
O51         O  0.95878611  0.42816256  0.91963933    -0.56500
O52         O  0.99756999  0.42707018  0.84932824    -0.59800
In53       In  0.08964888  0.72882208  0.76380067     1.36900
C54         C  0.04165243  0.70324722  0.74827547     0.77900
O55         O  0.08748085  0.75016144  0.70051192    -0.60600
O56         O  0.10193398  0.72789872  0.68365081    -0.51500
C57         C  0.12429627  0.77275107  0.79387349     0.70600
O58         O  0.10163992  0.76320139  0.80468553    -0.46300
C59         C  0.08943678  0.69882409  0.83327783     0.75300
O60         O  0.05240724  0.72305815  0.77393795    -0.58200
O61         O  0.09684496  0.69972546  0.78764068    -0.48300
O62         O  0.05550909  0.69623213  0.73316588    -0.54600
C63         C  0.09551498  0.74218816  0.66695182     0.85400
O64         O  0.12937961  0.75864351  0.77150896    -0.56500
O65         O  0.08433289  0.71465547  0.84352531    -0.59800
In66       In  0.00810807  0.58306128  0.02739333     1.36900
C67         C  0.98485647  0.60619576  0.02792116     0.77900
O68         O  0.98018272  0.56249313  0.08813938    -0.60600
O69         O  0.01813682  0.58328929  0.11069142    -0.51500
C70         C  0.00142484  0.54116111  0.99660895     0.70600
O71         O  0.98748836  0.54841925  0.98250851    -0.46300
C72         C  0.04449356  0.61630657  0.96817878     0.75300
O73         O  0.97529351  0.58526691  0.00697643    -0.58200
O74         O  0.04709672  0.61549310  0.01635863    -0.48300
O75         O  0.00635395  0.61528351  0.04597844    -0.54600
C76         C  0.99562465  0.56954810  0.12439050     0.85400
O77         O  0.01965804  0.55622541  0.02426379    -0.56500
O78         O  0.02416979  0.59883936  0.95031855    -0.59800
In79       In  0.22769000  0.92032478  0.85805869     1.36900
C80         C  0.27544767  0.94714547  0.87125084     0.77900
O81         O  0.23092772  0.93458932  0.77878897    -0.60600
O82         O  0.21708605  0.94728070  0.83678358    -0.51500
C83         C  0.19394337  0.87628112  0.82712002     0.70600
O84         O  0.21652050  0.88655136  0.81475330    -0.46300
C85         C  0.22395399  0.90717284  0.95538117     0.75300
O86         O  0.26510262  0.92677623  0.84777680    -0.58200
O87         O  0.21566150  0.92001358  0.93936802    -0.48300
O88         O  0.26150908  0.95444100  0.88406636    -0.54600
C89         C  0.22360257  0.94859905  0.79025060     0.85400
O90         O  0.18863031  0.88957980  0.85209145    -0.56500
O91         O  0.23284580  0.90051963  0.92093284    -0.59800
In92       In  0.29507355  0.06198777  0.59551695     1.36900
C93         C  0.31988535  0.04067128  0.59865093     0.77900
O94         O  0.27838267  0.04688553  0.67221685    -0.60600
O95         O  0.25622846  0.02927825  0.60577223    -0.51500
C96         C  0.30376504  0.10502225  0.62060898     0.70600
O97         O  0.31631620  0.09687025  0.63846012    -0.46300
C98         C  0.30796440  0.07284417  0.49868031     0.75300
O99         O  0.32832796  0.06140338  0.61963660    -0.58200
O100        O  0.28523319  0.06054796  0.51133976    -0.48300
O101        O  0.29842684  0.03069855  0.57973950    -0.54600
C102        C  0.25856151  0.02885627  0.65409469     0.85400
O103        O  0.28542085  0.09007783  0.59302825    -0.56500
O104        O  0.32310138  0.08010113  0.53545542    -0.59800
In105      In  0.33912343  0.24557601  0.69704742     1.36900
C106        C  0.31541144  0.26681214  0.71694124     0.77900
O107        O  0.31778577  0.22365045  0.76498341    -0.60600
O108        O  0.35635921  0.24933898  0.77586916    -0.51500
C109        C  0.32880690  0.20360243  0.65938670     0.70600
O110        O  0.31399831  0.21069391  0.65470917    -0.46300
C111        C  0.37008239  0.27940768  0.62955779     0.75300
O112        O  0.30495769  0.24673982  0.69228517    -0.58200
O113        O  0.37713847  0.27713688  0.67362366    -0.48300
O114        O  0.33780257  0.27582454  0.72851579    -0.54600
C115        C  0.33563001  0.23387954  0.79626488     0.85400
O116        O  0.34940068  0.21895535  0.68018561    -0.56500
O117        O  0.34781993  0.26316797  0.61903027    -0.59800
In118      In  0.42357893  0.40204446  0.44062973     1.36900
C119        C  0.37655858  0.38288254  0.42138320     0.77900
O120        O  0.42319284  0.42545049  0.37990730    -0.60600
O121        O  0.43604584  0.40236614  0.35879397    -0.51500
C122        C  0.46060400  0.44447072  0.47327271     0.70600
O123        O  0.43841254  0.43601428  0.48642289    -0.46300
C124        C  0.41787315  0.36614963  0.50162416     0.75300
O125        O  0.38799583  0.40032906  0.45337728    -0.58200
O126        O  0.42496596  0.36830346  0.45538520    -0.48300
O127        O  0.38882528  0.37448613  0.40385155    -0.54600
C128        C  0.43027088  0.41747018  0.34432787     0.85400
O129        O  0.46398960  0.42964302  0.44874085    -0.56500
O130        O  0.41602208  0.38353684  0.51735539    -0.59800
In131      In  0.63888403  0.73942016  0.24980921     1.36900
C132        C  0.66245273  0.71689018  0.24502935     0.77900
O133        O  0.62619771  0.72416859  0.32867659    -0.60600
O134        O  0.60028608  0.70714656  0.26725589    -0.51500
C135        C  0.64618389  0.78175444  0.27852396     0.70600
O136        O  0.66042474  0.77478259  0.29189513    -0.46300
C137        C  0.64964358  0.75064110  0.15156047     0.75300
O138        O  0.67195807  0.73747976  0.26754329    -0.58200
O139        O  0.62740069  0.73647926  0.16669828    -0.48300
O140        O  0.64079164  0.70787416  0.22789868    -0.54600
C141        C  0.60514497  0.70654137  0.31437998     0.81800
O142        O  0.62737520  0.76619617  0.25268474    -0.56500
O143        O  0.66551502  0.75984027  0.18716624    -0.59800
In144      In  0.56773395  0.59375474  0.51555273     1.36900
C145        C  0.61552173  0.62055973  0.52773295     0.77900
O146        O  0.56977288  0.60763160  0.43567077    -0.60600
O147        O  0.55945525  0.62254721  0.49604901    -0.51500
C148        C  0.53251478  0.54867087  0.49301013     0.70600
O149        O  0.55440377  0.55835914  0.47612772    -0.46300
C150        C  0.56567849  0.58079482  0.61261986     0.75300
O151        O  0.60513166  0.60122004  0.50039099    -0.58200
O152        O  0.55642518  0.59291661  0.59736062    -0.48300
O153        O  0.60148754  0.62710719  0.54433797    -0.54600
C154        C  0.56515799  0.62352587  0.44903125     0.85400
O155        O  0.52829369  0.56318168  0.51635068    -0.56500
O156        O  0.57539455  0.57523983  0.57771885    -0.59800
In157      In  0.92435489  0.23501808  0.58639372     1.36900
C158        C  0.94946087  0.28280094  0.57801357     0.77900
O159        O  0.93742004  0.23662350  0.66622232    -0.60600
O160        O  0.95355873  0.22703178  0.60704067    -0.51500
C161        C  0.87957491  0.20001724  0.61387477     0.70600
O162        O  0.88889659  0.22220819  0.62676169    -0.46300
C163        C  0.91293822  0.23156984  0.48786166     0.75300
O164        O  0.92859337  0.27113589  0.60010432    -0.58200
O165        O  0.92630747  0.22403480  0.50484954    -0.48300
O166        O  0.95800272  0.27008885  0.56451366    -0.54600
C167        C  0.95343269  0.23185369  0.65423044     0.85400
O168        O  0.89407550  0.19581495  0.59007352    -0.56500
O169        O  0.90536240  0.23985301  0.52168044    -0.59800
In170      In  0.06635950  0.30703365  0.85761900     1.36900
C171        C  0.05012664  0.33634358  0.86517978     0.77900
O172        O  0.04837998  0.29072700  0.78304476    -0.60600
O173        O  0.03086782  0.26929836  0.84977426    -0.51500
C174        C  0.10687081  0.31146232  0.82307932     0.70600
O175        O  0.10037821  0.32593746  0.80917843    -0.46300
C176        C  0.08242722  0.31725272  0.95329075     0.75300
O177        O  0.06639629  0.34027916  0.83235724    -0.58200
O178        O  0.06606461  0.29550527  0.93928609    -0.48300
O179        O  0.04136698  0.31682861  0.89075804    -0.54600
C180        C  0.03021375  0.27128074  0.80146771     0.85400
O181        O  0.09164191  0.29390122  0.85163626    -0.56500
O182        O  0.09115554  0.33288834  0.91751071    -0.59800
In183      In  0.73358587  0.08722350  0.68207060     1.36900
C184        C  0.70983664  0.03937959  0.69293107     0.77900
O185        O  0.75537601  0.08445785  0.74477196    -0.60600
O186        O  0.73380788  0.09930452  0.76379930    -0.51500
C187        C  0.77739405  0.12232979  0.64841852     0.70600
O188        O  0.76843254  0.09990061  0.63838241    -0.46300
C189        C  0.70036063  0.08864657  0.62267098     0.75300
O190        O  0.72712291  0.05050932  0.66042657    -0.58200
O191        O  0.70250454  0.09357438  0.67022839    -0.48300
O192        O  0.70400923  0.05248023  0.71656301    -0.54600
C193        C  0.74778307  0.09229860  0.77963484     0.85400
O194        O  0.76303668  0.12656314  0.67267313    -0.56500
O195        O  0.71629065  0.08477651  0.60541111    -0.59800
In196      In  0.58096040  0.01765809  0.42625284     1.36900
C197        C  0.60196975  0.99323276  0.41000104     0.77900
O198        O  0.55835961  0.99473514  0.36035475    -0.60600
O199        O  0.58299861  0.03294667  0.34635178    -0.51500
C200        C  0.53904814  0.00861665  0.46366799     0.70600
O201        O  0.54625640  0.99406775  0.47037122    -0.46300
C202        C  0.61504139  0.04929888  0.49287944     0.75300
O203        O  0.58161495  0.98360090  0.43387519    -0.58200
O204        O  0.61362434  0.05547329  0.44730883    -0.48300
O205        O  0.61159538  0.01536604  0.39696923    -0.54600
C206        C  0.56753117  0.01182660  0.32773416     0.85400
O207        O  0.55432134  0.02849040  0.44088250    -0.56500
O208        O  0.59794533  0.02771582  0.50485628    -0.59800
In209      In  0.24936606  0.90186888  0.26968289     1.36900
C210        C  0.27604658  0.94906546  0.25300062     0.77900
O211        O  0.26484211  0.90629901  0.34897560    -0.60600
O212        O  0.27825630  0.89371471  0.28973707    -0.51500
C213        C  0.20544831  0.86707511  0.29937075     0.70600
O214        O  0.21412924  0.88939558  0.31038975    -0.46300
C215        C  0.23566698  0.89631196  0.17223267     0.75300
O216        O  0.25664431  0.93947321  0.28036616    -0.58200
O217        O  0.24920334  0.88896588  0.18926879    -0.48300
O218        O  0.28215427  0.93451513  0.23808160    -0.54600
C219        C  0.28008153  0.90061394  0.33603693     0.85400
O220        O  0.22029283  0.86287242  0.27714268    -0.56500
O221        O  0.22858945  0.90519341  0.20585139    -0.59800
In222      In  0.39674390  0.97406147  0.53439062     1.36900
C223        C  0.37092576  0.99344330  0.54852753     0.77900
O224        O  0.38095544  0.96231360  0.45600230    -0.60600
O225        O  0.36506764  0.93560540  0.51614421    -0.51500
C226        C  0.43956055  0.98342092  0.50350081     0.70600
O227        O  0.43162082  0.99694370  0.49117503    -0.46300
C228        C  0.41290424  0.98721923  0.62921613     0.75300
O229        O  0.39032763  0.00398759  0.52096144    -0.58200
O230        O  0.39966276  0.96465503  0.61613698    -0.48300
O231        O  0.36440624  0.97255724  0.56602057    -0.54600
C232        C  0.36387453  0.94096067  0.46965440     0.85400
O233        O  0.42435207  0.96396640  0.52774786    -0.56500
O234        O  0.41827122  0.00234334  0.59313096    -0.59800
In235      In  0.91939085  0.68496455  0.09469757     1.36900
C236        C  0.94012399  0.65951674  0.08346813     0.77900
O237        O  0.89596686  0.65847673  0.03567549    -0.60600
O238        O  0.92057518  0.69572595  0.01181402    -0.51500
C239        C  0.87770087  0.67889142  0.12742742     0.70600
O240        O  0.88449345  0.66437301  0.13908281    -0.46300
C241        C  0.95364217  0.71875516  0.15576124     0.75300
O242        O  0.92087180  0.65152980  0.11071226    -0.58200
O243        O  0.95244339  0.72322973  0.10873405    -0.48300
O244        O  0.94924245  0.68095872  0.06610614    -0.54600
C245        C  0.90506021  0.67351670  0.99892781     0.85400
O246        O  0.89336018  0.69771665  0.10213533    -0.56500
O247        O  0.93646897  0.69782540  0.17119677    -0.59800
In248      In  0.06109000  0.75171537  0.36168299     1.36900
C249        C  0.03309468  0.70426056  0.36845172     0.77900
O250        O  0.08067991  0.74302829  0.41880638    -0.60600
O251        O  0.06400484  0.76225854  0.44454863    -0.51500
C252        C  0.10420511  0.78799688  0.33097531     0.70600
O253        O  0.09554115  0.76606896  0.31661397    -0.46300
C254        C  0.03143316  0.75600082  0.29947452     0.75300
O255        O  0.05307009  0.71479938  0.34276705    -0.58200
O256        O  0.03222257  0.76051047  0.34718603    -0.48300
O257        O  0.02672280  0.71812378  0.38666021    -0.54600
C258        C  0.07585714  0.75222529  0.45600867     0.85400
O259        O  0.09000358  0.79107548  0.35894703    -0.56500
O260        O  0.04687822  0.75096003  0.28430767    -0.59800
In261      In  0.39417716  0.42227342  0.03760677     1.36900
C262        C  0.37188000  0.37448089  0.04930059     0.77900
O263        O  0.41723447  0.42081287  0.09855785    -0.60600
O264        O  0.39587542  0.43582717  0.11871857    -0.51500
C265        C  0.43749574  0.45783809  0.00201868     0.70600
O266        O  0.42883327  0.43535635  0.99319572    -0.46300
C267        C  0.36046966  0.42150224  0.97605028     0.75300
O268        O  0.38859633  0.38605313  0.01586145    -0.58200
O269        O  0.36119077  0.42586295  0.02374598    -0.48300
O270        O  0.36592019  0.38720839  0.07417377    -0.54600
C271        C  0.41066623  0.42960070  0.13346513     0.85400
O272        O  0.42304927  0.46198156  0.02627337    -0.56500
O273        O  0.37775211  0.41928901  0.96059046    -0.59800
In274      In  0.25004487  0.34465432  0.76718404     1.36900
C275        C  0.27123528  0.31996649  0.77158162     0.77900
O276        O  0.23360891  0.31861681  0.70194663    -0.60600
O277        O  0.25257785  0.35675272  0.68443783    -0.51500
C278        C  0.20620483  0.33520379  0.79235386     0.70600
O279        O  0.21442352  0.32269111  0.80980289    -0.46300
C280        C  0.28209983  0.38039485  0.82975370     0.75300
O281        O  0.24972096  0.31121779  0.78950976    -0.58200
O282        O  0.28296789  0.38330876  0.78144877    -0.48300
O283        O  0.28201054  0.34165241  0.75473138    -0.54600
C284        C  0.24085132  0.33481976  0.66766439     0.85400
O285        O  0.22118719  0.35335667  0.76478147    -0.56500
O286        O  0.26368746  0.36023895  0.84520416    -0.59800
In287      In  0.73352204  0.64252764  0.19064215     1.36900
C288        C  0.71011791  0.66530303  0.19935742     0.77900
O289        O  0.71777601  0.62998868  0.11161321    -0.60600
O290        O  0.70135337  0.60427493  0.17315358    -0.51500
C291        C  0.77686943  0.65179948  0.16016543     0.70600
O292        O  0.76968548  0.66620618  0.15074595    -0.46300
C293        C  0.74627766  0.65130741  0.28893029     0.75300
O294        O  0.73048654  0.67485404  0.17541271    -0.58200
O295        O  0.73214670  0.62950153  0.27217637    -0.48300
O296        O  0.70156088  0.64389832  0.21626130    -0.54600
C297        C  0.70033251  0.60900895  0.12621342     0.85400
O298        O  0.76097415  0.63186185  0.18191375    -0.56500
O299        O  0.75405604  0.66773032  0.25491752    -0.59800
In300      In  0.58449286  0.56906637  0.92889761     1.36900
C301        C  0.61140224  0.61694811  0.91871105     0.77900
O302        O  0.59990494  0.57264266  0.00767762    -0.60600
O303        O  0.61380788  0.56103153  0.94770824    -0.51500
C304        C  0.53960441  0.53482975  0.96030316     0.70600
O305        O  0.54941618  0.55730905  0.97134462    -0.46300
C306        C  0.57357365  0.56567389  0.82961999     0.75300
O307        O  0.59036293  0.60613082  0.94022364    -0.58200
O308        O  0.58574510  0.55701314  0.84777674    -0.48300
O309        O  0.61893793  0.60332437  0.90577279    -0.54600
C310        C  0.61559192  0.56764633  0.99422920     0.85400
O311        O  0.55359062  0.53003233  0.93618674    -0.56500
O312        O  0.56631881  0.57449237  0.86287445    -0.59800
In313      In  0.69135340  0.76551339  0.84084770     1.36900
C314        C  0.66587262  0.71738322  0.85061681     0.77900
O315        O  0.70493408  0.76338274  0.76260332    -0.60600
O316        O  0.73010966  0.77476243  0.82534689    -0.51500
C317        C  0.67991102  0.79796184  0.81754823     0.70600
O318        O  0.66793726  0.77616081  0.80048703    -0.46300
C319        C  0.68202621  0.76646639  0.93928866     0.75300
O320        O  0.65747951  0.72802797  0.82494994    -0.58200
O321        O  0.70422984  0.77683660  0.92336106    -0.48300
O322        O  0.68772818  0.73133380  0.86694978    -0.54600
C323        C  0.72576634  0.76829899  0.77856493     0.85400
O324        O  0.69978027  0.80402339  0.84087166    -0.56500
O325        O  0.66576986  0.75701001  0.90457751    -0.59800
In326      In  0.76428184  0.68939566  0.60202957     1.36900
C327        C  0.71609366  0.66656949  0.59466424     0.77900
O328        O  0.76340287  0.70474322  0.67869812    -0.60600
O329        O  0.77422332  0.72835025  0.61387467    -0.51500
C330        C  0.79456194  0.67610218  0.63350775     0.70600
O331        O  0.77205773  0.66473546  0.64675791    -0.46300
C332        C  0.76592297  0.68039703  0.50304859     0.75300
O333        O  0.72609803  0.65679969  0.61763480    -0.58200
O334        O  0.77770530  0.70224600  0.52032632    -0.48300
O335        O  0.73074128  0.68814941  0.57877186    -0.54600
C336        C  0.76814711  0.72501386  0.66087572     0.85400
O337        O  0.80196809  0.69573042  0.60862089    -0.56500
O338        O  0.75471159  0.66408687  0.53682171    -0.59800
In339      In  0.62731424  0.89028647  0.76998091     1.36900
C340        C  0.65354321  0.93762071  0.74937014     0.77900
O341        O  0.65119056  0.89376379  0.70566923    -0.60600
O342        O  0.61274113  0.87680587  0.68924054    -0.51500
C343        C  0.63874288  0.85869988  0.80217932     0.70600
O344        O  0.65186657  0.88144227  0.81224685    -0.46300
C345        C  0.59495607  0.89160885  0.83245085     0.75300
O346        O  0.66055442  0.92827572  0.78267661    -0.58200
O347        O  0.58922980  0.88288830  0.78732184    -0.48300
O348        O  0.63250516  0.92301452  0.73009784    -0.54600
C349        C  0.63443483  0.88523457  0.67184494     0.85400
O350        O  0.61821169  0.85177407  0.78071956    -0.56500
O351        O  0.61602858  0.89685282  0.84724861    -0.59800
In352      In  0.56053029  0.97372471  0.01605379     1.36900
C353        C  0.60692439  0.99228728  0.03312780     0.77900
O354        O  0.56990085  0.00208174  0.07616972    -0.60600
O355        O  0.54649214  0.96439697  0.09756978    -0.51500
C356        C  0.52841715  0.98353188  0.98210121     0.70600
O357        O  0.55130667  0.99727595  0.97183545    -0.46300
C358        C  0.55859887  0.94036035  0.95282631     0.75300
O359        O  0.59962422  0.00328606  0.00503200    -0.58200
O360        O  0.54994257  0.93500822  0.99820625    -0.48300
O361        O  0.59039247  0.97135054  0.04991710    -0.54600
C362        C  0.55798825  0.98684174  0.11160327     0.85400
O363        O  0.52207988  0.96363587  0.00491662    -0.56500
O364        O  0.56577429  0.96196635  0.93879883    -0.59800
In365      In  0.95901928  0.55542038  0.43660776     1.36900
C366        C  0.98303731  0.60324467  0.42814606     0.77900
O367        O  0.98468577  0.56303499  0.37230519    -0.60600
O368        O  0.94606179  0.54189207  0.35554216    -0.51500
C369        C  0.97091796  0.52415906  0.46588734     0.70600
O370        O  0.98325787  0.54648673  0.47954644    -0.46300
C371        C  0.92361293  0.55156910  0.49736132     0.75300
O372        O  0.99208621  0.59306311  0.45315579    -0.58200
O373        O  0.92011978  0.54682050  0.44973312    -0.48300
O374        O  0.96150515  0.58894853  0.41066541    -0.54600
C375        C  0.96807082  0.55204941  0.33869504     0.85400
O376        O  0.95083946  0.51740868  0.44263250    -0.56500
O377        O  0.94400218  0.55558455  0.51400866    -0.59800
In378      In  0.88946481  0.62670252  0.69323889     1.36900
C379        C  0.93805174  0.65182503  0.69830510     0.77900
O380        O  0.89807754  0.65279443  0.75538059    -0.60600
O381        O  0.87753927  0.61493104  0.77598526    -0.51500
C382        C  0.85796712  0.63845568  0.66162498     0.70600
O383        O  0.88026466  0.64978467  0.64696083    -0.46300
C384        C  0.88426803  0.59056690  0.63398955     0.75300
O385        O  0.92675894  0.66034040  0.67580990    -0.58200
O386        O  0.88025515  0.58777008  0.68192797    -0.48300
O387        O  0.92451453  0.63017787  0.71489462    -0.54600
C388        C  0.88815286  0.63714268  0.79071725     0.85400
O389        O  0.85128193  0.61955462  0.68864962    -0.56500
O390        O  0.88836131  0.61068650  0.61670066    -0.59800
In391      In  0.02271169  0.43078962  0.50246510     1.36900
C392        C  0.00168839  0.38356539  0.51460688     0.77900
O393        O  0.03702055  0.42888249  0.42529547    -0.60600
O394        O  0.06202120  0.44150361  0.48878953    -0.51500
C395        C  0.00900575  0.46084801  0.47475962     0.70600
O396        O  0.99696183  0.43847069  0.46136685    -0.46300
C397        C  0.01135999  0.43192483  0.59961825     0.75300
O398        O  0.99211569  0.39223095  0.48605996    -0.58200
O399        O  0.03383751  0.44373679  0.58484704    -0.48300
O400        O  0.02255946  0.39912684  0.53351466    -0.54600
C401        C  0.05792893  0.43447908  0.44231033     0.85400
O402        O  0.02965369  0.46823625  0.49619909    -0.56500
O403        O  0.99572409  0.42103552  0.56421073    -0.59800
In404      In  0.09687281  0.35583324  0.26390496     1.36900
C405        C  0.04866999  0.33047753  0.25046993     0.77900
O406        O  0.09299957  0.36900127  0.34091901    -0.60600
O407        O  0.10592146  0.39422956  0.27855175    -0.51500
C408        C  0.12927029  0.34565788  0.29492882     0.70600
O409        O  0.10647124  0.33216445  0.30567490    -0.46300
C410        C  0.10110260  0.34786617  0.16571570     0.75300
O411        O  0.05879937  0.32214691  0.27812778    -0.58200
O412        O  0.10974324  0.36950255  0.18240711    -0.48300
O413        O  0.06318425  0.35192183  0.23357934    -0.54600
C414        C  0.09869940  0.38986787  0.32483282     0.85400
O415        O  0.13579018  0.36583824  0.27338822    -0.56500
O416        O  0.09195278  0.33146621  0.19982157    -0.59800
In417      In  0.42578337  0.02386377  0.94024641     1.36900
C418        C  0.37726451  0.00007851  0.93381835     0.77900
O419        O  0.42671202  0.03901652  0.01781361    -0.60600
O420        O  0.43547412  0.06264672  0.95347623    -0.51500
C421        C  0.45851363  0.01343420  0.96702328     0.70600
O422        O  0.43597774  0.00005015  0.98003899    -0.46300
C423        C  0.42968114  0.01500290  0.84273291     0.75300
O424        O  0.38778979  0.99197877  0.96090309    -0.58200
O425        O  0.43873365  0.03673191  0.85927531    -0.48300
O426        O  0.39171686  0.02059804  0.91286483    -0.54600
C427        C  0.43137981  0.05947907  0.00132685     0.85400
O428        O  0.46451662  0.03350493  0.94563873    -0.56500
O429        O  0.41923153  0.99847978  0.87641045    -0.59800
In430      In  0.36127635  0.09786016  0.19686949     1.36900
C431        C  0.33427255  0.04981301  0.19140071     0.77900
O432        O  0.37786141  0.10018188  0.12090506    -0.60600
O433        O  0.40015969  0.10626964  0.18700984    -0.51500
C434        C  0.35316262  0.13254785  0.17212810     0.70600
O435        O  0.34200678  0.11156320  0.15122574    -0.46300
C436        C  0.34780039  0.09381083  0.29360822     0.75300
O437        O  0.32686123  0.06281403  0.17272655    -0.58200
O438        O  0.37036500  0.10309080  0.28158344    -0.48300
O439        O  0.35604951  0.06148439  0.20885102    -0.54600
C440        C  0.39750590  0.10290505  0.13880972     0.85400
O441        O  0.37042935  0.13664573  0.20262608    -0.56500
O442        O  0.33313329  0.08791975  0.25627844    -0.59800
In443      In  0.22809164  0.30245375  0.35240074     1.36900
C444        C  0.27616332  0.33261389  0.35753424     0.77900
O445        O  0.23235823  0.32674292  0.41777472    -0.60600
O446        O  0.21619333  0.28884548  0.43366981    -0.51500
C447        C  0.19470427  0.31084930  0.31816903     0.70600
O448        O  0.21738311  0.32423178  0.30691965    -0.46300
C449        C  0.22780659  0.26740410  0.29682591     0.75300
O450        O  0.26318430  0.33748436  0.32980320    -0.58200
O451        O  0.22296098  0.26493627  0.34434853    -0.48300
O452        O  0.26476610  0.31204279  0.37950564    -0.54600
C453        C  0.22404657  0.31013230  0.45131609     0.85400
O454        O  0.18857002  0.29139822  0.34249860    -0.56500
O455        O  0.23035303  0.28654186  0.27754280    -0.59800
In456      In  0.30172392  0.22497594  0.11036330     1.36900
C457        C  0.32542135  0.27248518  0.09811193     0.77900
O458        O  0.32751809  0.23285773  0.04628240    -0.60600
O459        O  0.28891997  0.20958419  0.02987603    -0.51500
C460        C  0.31458494  0.19463673  0.14191058     0.70600
O461        O  0.32707753  0.21726113  0.15315113    -0.46300
C462        C  0.26717108  0.22365315  0.17031716     0.75300
O463        O  0.33247203  0.26311880  0.13123982    -0.58200
O464        O  0.26305655  0.21723822  0.12349119    -0.48300
O465        O  0.30610443  0.25758373  0.07332646    -0.54600
C466        C  0.31100353  0.22084639  0.01282247     0.85400
O467        O  0.29409786  0.18724518  0.11983146    -0.56500
O468        O  0.28749714  0.22763693  0.18709787    -0.59800
C469        C  0.22941368  0.24993924  0.21250282    -0.12000
C470        C  0.23227128  0.25068968  0.26614463     0.05100
C471        C  0.24277596  0.23835247  0.28813255    -0.07200
C472        C  0.25255758  0.22806155  0.25630031    -0.08000
C473        C  0.25120031  0.22879597  0.20242055    -0.02500
C474        C  0.23821633  0.23871090  0.18081061     0.04300
N475        N  0.23541969  0.23924488  0.12648470     0.66800
H476        H  0.22108268  0.25893517  0.19478767     0.15700
H477        H  0.26221418  0.22037374  0.27385386     0.15400
N478        N  0.24531318  0.23761707  0.34253406     0.74500
O479        O  0.24933748  0.25889521  0.10204474    -0.39000
O480        O  0.21616501  0.22194369  0.10509392    -0.38900
O481        O  0.22999364  0.21845646  0.36699143    -0.39600
O482        O  0.26508838  0.25390261  0.36425940    -0.39700
C483        C  0.34276254  0.18505436  0.18738498    -0.12000
C484        C  0.32411803  0.17853403  0.15059133     0.05100
C485        C  0.31647267  0.15785430  0.11917839    -0.07200
C486        C  0.32683075  0.14379800  0.12592499    -0.08000
C487        C  0.34510659  0.14991073  0.16332461    -0.02500
C488        C  0.35328623  0.17100478  0.19396640     0.04300
N489        N  0.37202480  0.17835145  0.23225005     0.66800
H490        H  0.34922849  0.20110011  0.21103755     0.15700
H491        H  0.32042715  0.12795974  0.10162686     0.15400
N492        N  0.29913242  0.15154344  0.07827291     0.74500
O493        O  0.39442088  0.19330413  0.22061760    -0.39000
O494        O  0.36596236  0.17389147  0.27893002    -0.38900
O495        O  0.30693000  0.15935451  0.03350708    -0.39600
O496        O  0.27663315  0.13498035  0.08494927    -0.39700
C497        C  0.43294514  0.07593138  0.08873866    -0.12000
C498        C  0.42986375  0.07702075  0.03550617     0.05100
C499        C  0.42136127  0.09179159  0.01734829    -0.07200
C500        C  0.41344257  0.10259258  0.05235060    -0.08000
C501        C  0.41397856  0.09921857  0.10553726    -0.02500
C502        C  0.42537944  0.08709196  0.12374123     0.04300
N503        N  0.42710089  0.08369708  0.17747654     0.66800
H504        H  0.43979015  0.06503921  0.10345512     0.15700
H505        H  0.40497439  0.11200326  0.03763964     0.15400
N506        N  0.41785183  0.09372040  0.96375378     0.74500
O507        O  0.40968154  0.06493097  0.19962766    -0.39000
O508        O  0.44769873  0.09657350  0.20000758    -0.38900
O509        O  0.39735481  0.07826272  0.94316275    -0.39600
O510        O  0.43248306  0.11361208  0.94071648    -0.39700
C511        C  0.18759183  0.34440393  0.30541007    -0.12000
C512        C  0.17757681  0.31902305  0.30842036     0.05100
C513        C  0.15167981  0.30263614  0.30725619    -0.07200
C514        C  0.13633094  0.31182075  0.30499593    -0.08000
C515        C  0.14634995  0.33723945  0.30262870    -0.02500
C516        C  0.17229596  0.35358357  0.30218771     0.04300
N517        N  0.18350122  0.37956752  0.29943424     0.66800
H518        H  0.20737867  0.35727002  0.30672548     0.15700
H519        H  0.11655281  0.29896983  0.30325702     0.15400
N520        N  0.14069639  0.27668268  0.30506229     0.74500
O521        O  0.19115128  0.39216990  0.34007086    -0.39000
O522        O  0.19048860  0.39022231  0.25649500    -0.38900
O523        O  0.13160241  0.26394968  0.34518063    -0.39600
O524        O  0.13538318  0.26615768  0.26188605    -0.39700
C525        C  0.08582453  0.41980476  0.33063675    -0.12000
C526        C  0.09433310  0.40649709  0.35584187     0.05100
C527        C  0.09472432  0.40651204  0.41011807    -0.07200
C528        C  0.08514728  0.41820375  0.43777473    -0.08000
C529        C  0.07445029  0.42946454  0.41239664    -0.02500
C530        C  0.07568063  0.43095383  0.35827904     0.04300
N531        N  0.06604980  0.44310615  0.33064797     0.66800
H532        H  0.08544925  0.42015780  0.28914528     0.15700
H533        H  0.08432297  0.41674568  0.47918690     0.15400
N534        N  0.10406105  0.39410283  0.43784864     0.74500
O535        O  0.08015257  0.46568275  0.32060446    -0.39000
O536        O  0.04568952  0.43052803  0.30710374    -0.38900
O537        O  0.12572720  0.40635915  0.45605565    -0.39600
O538        O  0.08923954  0.37245767  0.45350013    -0.39700
C539        C  0.96576272  0.48353008  0.45301499    -0.12000
C540        C  0.98015146  0.50763795  0.47209676     0.05100
C541        C  0.00411100  0.51614413  0.49119045    -0.07200
C542        C  0.01335114  0.50091041  0.48957001    -0.08000
C543        C  0.99908582  0.47687317  0.47010101    -0.02500
C544        C  0.97484208  0.46811301  0.45225946     0.04300
N545        N  0.95888465  0.44349609  0.43424432     0.66800
H546        H  0.94739708  0.47657848  0.43815113     0.15700
H547        H  0.03168799  0.50788801  0.50463931     0.15400
N548        N  0.01940647  0.54016784  0.51262984     0.74500
O549        O  0.94290606  0.42740403  0.46422077    -0.39000
O550        O  0.95697134  0.43927306  0.38660678    -0.38900
O551        O  0.01923780  0.54302634  0.56052317    -0.39600
O552        O  0.03649330  0.55712545  0.48589787    -0.39700
C553        C  0.90725242  0.55141923  0.58428866    -0.12000
C554        C  0.90672440  0.55467177  0.53099439     0.05100
C555        C  0.89356780  0.56498595  0.51242327    -0.07200
C556        C  0.88404369  0.57444077  0.54710473    -0.08000
C557        C  0.88674822  0.57336004  0.60045564    -0.02500
C558        C  0.89696715  0.56014587  0.61894511     0.04300
N559        N  0.89904685  0.55727697  0.67278845     0.66800
H560        H  0.91679543  0.54312270  0.59933595     0.15700
H561        H  0.87600829  0.58421584  0.53204946     0.15400
N562        N  0.89200868  0.56851746  0.45870818     0.74500
O563        O  0.88070105  0.54013237  0.69663507    -0.39000
O564        O  0.92013936  0.56833617  0.69377554    -0.38900
O565        O  0.87189229  0.55444436  0.43532119    -0.39600
O566        O  0.90809923  0.58864602  0.43827471    -0.39700
C567        C  0.50075950  0.02161862  0.95571917    -0.12000
C568        C  0.47628900  0.00566562  0.97235207     0.05100
C569        C  0.46877420  0.98169325  0.98809657    -0.07200
C570        C  0.48583418  0.97467085  0.98826292    -0.08000
C571        C  0.51043649  0.99077260  0.97286371    -0.02500
C572        C  0.51774623  0.01443998  0.95528374     0.04300
N573        N  0.54219660  0.03131788  0.93661376     0.66800
H574        H  0.50691214  0.04024743  0.94166534     0.15700
H575        H  0.47955853  0.95585900  0.00212940     0.15400
N576        N  0.44387462  0.96414326  0.00331260     0.74500
O577        O  0.54684671  0.03090729  0.88970551    -0.39000
O578        O  0.55734530  0.04948547  0.96385410    -0.38900
O579        O  0.42981039  0.94660417  0.97357057    -0.39600
O580        O  0.43768273  0.96331119  0.04958120    -0.39700
C581        C  0.57247522  0.91287274  0.83812306    -0.12000
C582        C  0.58009744  0.89871777  0.86273269     0.05100
C583        C  0.57732482  0.89579219  0.91656540    -0.07200
C584        C  0.56834413  0.90795950  0.94471279    -0.08000
C585        C  0.56261978  0.92374699  0.92048027    -0.02500
C586        C  0.56422741  0.92563290  0.86628234     0.04300
N587        N  0.55837675  0.94106264  0.83909562     0.66800
H588        H  0.57466394  0.91556134  0.79696008     0.15700
H589        H  0.56723517  0.90613600  0.98611023     0.15400
N590        N  0.58360500  0.88060391  0.94334334     0.74500
O591        O  0.57545438  0.96289681  0.82897673    -0.39000
O592        O  0.53823148  0.93135467  0.81456864    -0.38900
O593        O  0.60299829  0.89046073  0.97046410    -0.39600
O594        O  0.56719330  0.85815936  0.94974826    -0.39700
C595        C  0.83438438  0.67889084  0.62078368    -0.12000
C596        C  0.81070026  0.66651447  0.64291864     0.05100
C597        C  0.80233480  0.64421288  0.66920670    -0.07200
C598        C  0.81770517  0.63506951  0.67338498    -0.08000
C599        C  0.84142587  0.64750450  0.65134118    -0.02500
C600        C  0.84960257  0.66958420  0.62430862     0.04300
N601        N  0.87320582  0.68278281  0.59966291     0.66800
H602        H  0.84104178  0.69570635  0.59947883     0.15700
H603        H  0.81105478  0.61823096  0.69458991     0.15400
N604        N  0.77826143  0.63045367  0.69173342     0.74500
O605        O  0.87538781  0.67665484  0.55499645    -0.39000
O606        O  0.89018277  0.70316395  0.61772663    -0.38900
O607        O  0.76101027  0.61190868  0.66851433    -0.39600
O608        O  0.77558913  0.63377331  0.73836507    -0.39700
C609        C  0.64575179  0.80387723  0.79558406    -0.12000
C610        C  0.67004117  0.81410736  0.81385404     0.05100
C611        C  0.68309688  0.83854796  0.83225198    -0.07200
C612        C  0.67214757  0.85234014  0.83003219    -0.08000
C613        C  0.64802876  0.84224100  0.81060419    -0.02500
C614        C  0.63465004  0.81748375  0.79428933     0.04300
N615        N  0.60972671  0.80569760  0.77621428     0.66800
H616        H  0.63503488  0.78500624  0.78278209     0.15700
H617        H  0.68280728  0.87119914  0.84290181     0.15400
N618        N  0.70748281  0.84978394  0.85323451     0.74500
O619        O  0.60552827  0.80341118  0.72851564    -0.39000
O620        O  0.59216147  0.79284128  0.80693407    -0.38900
O621        O  0.72589235  0.86458354  0.82609752    -0.39600
O622        O  0.71020456  0.84910929  0.90111321    -0.39700
C623        C  0.75204717  0.75232589  0.66521610    -0.12000
C624        C  0.76332754  0.74165765  0.69068651     0.05100
C625        C  0.76561086  0.74372034  0.74474060    -0.07200
C626        C  0.75564049  0.75514174  0.77208235    -0.08000
C627        C  0.74214643  0.76355046  0.74700965    -0.02500
C628        C  0.74108644  0.76272851  0.69273618     0.04300
N629        N  0.72789012  0.77121779  0.66494123     0.66800
H630        H  0.74994699  0.75085313  0.62394701     0.15700
H631        H  0.75656363  0.75537930  0.81353075     0.15400
N632        N  0.77683419  0.73322494  0.77292287     0.74500
O633        O  0.73912923  0.79336128  0.65076356    -0.39000
O634        O  0.70711498  0.75580604  0.64531544    -0.38900
O635        O  0.79705631  0.74722761  0.79601741    -0.39600
O636        O  0.76393786  0.71079660  0.78508990    -0.39700
C637        C  0.61247672  0.65338828  0.88641087    -0.12000
C638        C  0.62539502  0.64310247  0.90514036     0.05100
C639        C  0.65145410  0.65693303  0.90370855    -0.07200
C640        C  0.66411917  0.68065462  0.88339481    -0.08000
C641        C  0.65129911  0.69110975  0.86459864    -0.02500
C642        C  0.62515922  0.67718382  0.86604162     0.04300
N643        N  0.61119074  0.68706507  0.84849953     0.66800
H644        H  0.59241424  0.64269367  0.88641906     0.15700
H645        H  0.68416800  0.69116909  0.88358150     0.15400
N646        N  0.66534162  0.64758105  0.92493200     0.74500
O647        O  0.60191558  0.68181928  0.80396521    -0.39000
O648        O  0.60350927  0.69598487  0.88069191    -0.38900
O649        O  0.67819075  0.64321379  0.89583440    -0.39600
O650        O  0.66841840  0.64811963  0.97293012    -0.39700
C651        C  0.76899980  0.68304899  0.35666027    -0.12000
C652        C  0.75298948  0.65802726  0.34382670     0.05100
C653        C  0.74310132  0.64059623  0.38379582    -0.07200
C654        C  0.74858986  0.64840105  0.43496736    -0.08000
C655        C  0.76375104  0.67348510  0.44791709    -0.02500
C656        C  0.77447555  0.69086434  0.40793243     0.04300
N657        N  0.79067665  0.71649676  0.41843740     0.66800
H658        H  0.77711845  0.69683165  0.32671412     0.15700
H659        H  0.74019293  0.63460395  0.46482128     0.15400
N660        N  0.72677774  0.61496849  0.37350431     0.74500
O661        O  0.81338726  0.72527700  0.42623298    -0.39000
O662        O  0.78346665  0.73084517  0.40970696    -0.38900
O663        O  0.73479299  0.60101305  0.37705829    -0.39600
O664        O  0.70372190  0.60572567  0.37200615    -0.39700
C665        C  0.65500310  0.58200878  0.11418532    -0.12000
C666        C  0.67870270  0.59285512  0.09275455     0.05100
C667        C  0.68081997  0.59148289  0.03905515    -0.07200
C668        C  0.65953683  0.58073298  0.00779507    -0.08000
C669        C  0.63607416  0.57206124  0.02893464    -0.02500
C670        C  0.63386742  0.57205221  0.08291334     0.04300
N671        N  0.61045974  0.56318330  0.10660895     0.66800
H672        H  0.65299910  0.58299199  0.15512280     0.15700
H673        H  0.66168246  0.58099529  0.96663924     0.15400
N674        N  0.70447456  0.60167865  0.01540565     0.74500
O675        O  0.59742687  0.54104852  0.12076538    -0.39000
O676        O  0.60541239  0.57831747  0.12297748    -0.38900
O677        O  0.71123551  0.58754572  0.00131542    -0.39600
O678        O  0.71571676  0.62336910  0.99835592    -0.39700
C679        C  0.23559206  0.34457953  0.57757585    -0.12000
C680        C  0.23576949  0.32817177  0.61248475     0.05100
C681        C  0.23031635  0.30514098  0.59427865    -0.07200
C682        C  0.22511470  0.29914319  0.54219821    -0.08000
C683        C  0.22551889  0.31573843  0.50699150    -0.02500
C684        C  0.23039758  0.33855834  0.52534342     0.04300
N685        N  0.22962931  0.35564604  0.49182565     0.66800
H686        H  0.23921571  0.36207824  0.59094049     0.15700
H687        H  0.22191022  0.28179285  0.52891727     0.15400
N688        N  0.23143400  0.28813891  0.62745760     0.74500
O689        O  0.20941671  0.35425285  0.48540880    -0.39000
O690        O  0.24959395  0.37495158  0.47854342    -0.38900
O691        O  0.21176640  0.26810109  0.63875721    -0.39600
O692        O  0.25208202  0.29080999  0.63645049    -0.39700
C693        C  0.35642031  0.34088815  0.11278006    -0.12000
C694        C  0.36084941  0.34837629  0.06105442     0.05100
C695        C  0.35463773  0.33085844  0.02221331    -0.07200
C696        C  0.34349144  0.30615817  0.03542643    -0.08000
C697        C  0.33882482  0.29872178  0.08692851    -0.02500
C698        C  0.34559979  0.31617804  0.12595539     0.04300
N699        N  0.34037338  0.30885469  0.17860736     0.66800
H700        H  0.36124062  0.35426163  0.14299450     0.15700
H701        H  0.33814557  0.29264776  0.00526330     0.15400
N702        N  0.35809927  0.33758418  0.96917900     0.74500
O703        O  0.35742384  0.31151562  0.20767920    -0.39000
O704        O  0.31825931  0.29683321  0.19416895    -0.38900
O705        O  0.37533402  0.33819889  0.94463658    -0.39600
O706        O  0.34098089  0.33740084  0.94479968    -0.39700
C707        C  0.47312583  0.50120995  0.00968398    -0.12000
C708        C  0.46311201  0.47775192  0.98817587     0.05100
C709        C  0.47848535  0.47344148  0.95751925    -0.07200
C710        C  0.50330702  0.49215742  0.95000855    -0.08000
C711        C  0.51345106  0.51550965  0.97204606    -0.02500
C712        C  0.49797888  0.51999624  0.00197184     0.04300
N713        N  0.50720619  0.54328074  0.02577657     0.66800
H714        H  0.46179092  0.50491395  0.03372564     0.15700
H715        H  0.51460717  0.48837337  0.92604663     0.15400
N716        N  0.46921653  0.45031157  0.93296502     0.74500
O717        O  0.50220821  0.55797780  0.00631046    -0.39000
O718        O  0.51563126  0.54688306  0.07098198    -0.38900
O719        O  0.46002288  0.44677027  0.88847799    -0.39600
O720        O  0.47507698  0.43592093  0.95041299    -0.39700
C721        C  0.34583948  0.42189477  0.88768890    -0.12000
C722        C  0.34043536  0.41740615  0.94035676     0.05100
C723        C  0.31547692  0.40532062  0.95593853    -0.07200
C724        C  0.29654789  0.39530878  0.91883430    -0.08000
C725        C  0.30194349  0.39757066  0.86604073    -0.02500
C726        C  0.32691748  0.41254632  0.85064468     0.04300
N727        N  0.33352856  0.41684456  0.79758625     0.66800
H728        H  0.36491308  0.43166710  0.87495527     0.15700
H729        H  0.27748932  0.38428481  0.93155360     0.15400
N730        N  0.30882671  0.40085710  0.00894940     0.74500
O731        O  0.33659422  0.43580200  0.77617013    -0.39000
O732        O  0.34127634  0.40488946  0.77570632    -0.38900
O733        O  0.30102298  0.41278515  0.03076378    -0.39600
O734        O  0.30532198  0.38163605  0.02993257    -0.39700
C735        C  0.03334461  0.66731638  0.38838262    -0.12000
C736        C  0.01962529  0.67809696  0.38121605     0.05100
C737        C  0.99412490  0.66453611  0.39251624    -0.07200
C738        C  0.98274478  0.64035321  0.40960776    -0.08000
C739        C  0.99649557  0.62959066  0.41694951    -0.02500
C740        C  0.02210295  0.64338003  0.40696516     0.04300
N741        N  0.03676674  0.63306771  0.41308432     0.66800
H742        H  0.05306807  0.67774671  0.38094456     0.15700
H743        H  0.96299814  0.62986383  0.41676870     0.15400
N744        N  0.97938111  0.67474363  0.38553418     0.74500
O745        O  0.04046157  0.62363497  0.37469470    -0.39000
O746        O  0.05071758  0.63887409  0.45182720    -0.38900
O747        O  0.96670105  0.66990941  0.34503034    -0.39600
O748        O  0.97455750  0.68337017  0.42381170    -0.39700
C749        C  0.88744105  0.63919226  0.93672600    -0.12000
C750        C  0.89886466  0.66458833  0.94540031     0.05100
C751        C  0.90568045  0.68040962  0.90293330    -0.07200
C752        C  0.90069491  0.67066771  0.85329718    -0.08000
C753        C  0.89002948  0.64537959  0.84451211    -0.02500
C754        C  0.88351758  0.62958495  0.88702069     0.04300
N755        N  0.87491368  0.60424726  0.88084887     0.66800
H756        H  0.88269693  0.62672136  0.96873413     0.15700
H757        H  0.90616799  0.68328783  0.82134867     0.15400
N758        N  0.91866551  0.70644596  0.90911217     0.74500
O759        O  0.89031413  0.59787257  0.88323783    -0.39000
O760        O  0.85215431  0.58817370  0.88598236    -0.38900
O761        O  0.94195917  0.71911552  0.90528387    -0.39600
O762        O  0.90690708  0.71693445  0.90605785    -0.39700
C763        C  0.96909559  0.73506629  0.24294409    -0.12000
C764        C  0.97420734  0.73546567  0.19043799     0.05100
C765        C  0.99909123  0.74805098  0.17418952    -0.07200
C766        C  0.01805528  0.75731160  0.21094826    -0.08000
C767        C  0.01265898  0.75428603  0.26370030    -0.02500
C768        C  0.98809484  0.74459408  0.27960707     0.04300
N769        N  0.98171243  0.74164813  0.33279290     0.66800
H770        H  0.95008208  0.72573270  0.25587667     0.15700
H771        H  0.03689195  0.76497168  0.19815580     0.15400
N772        N  0.00533497  0.74885741  0.12124408     0.74500
O773        O  0.97743661  0.75647239  0.35407683    -0.39000
O774        O  0.97559367  0.72186053  0.35525701    -0.38900
O775        O  0.01754382  0.76933472  0.09867320    -0.39600
O776        O  0.00362529  0.73029499  0.10099341    -0.39700
C777        C  0.83353215  0.64806302  0.14456048    -0.12000
C778        C  0.85243671  0.67289774  0.13870596     0.05100
C779        C  0.84618480  0.69072069  0.13851900    -0.07200
C780        C  0.82138421  0.68341801  0.14422642    -0.08000
C781        C  0.80246650  0.65850404  0.14968249    -0.02500
C782        C  0.80876467  0.64073857  0.14923898     0.04300
N783        N  0.79014475  0.61507170  0.15029684     0.66800
H784        H  0.83781510  0.63403458  0.14319787     0.15700
H785        H  0.81700375  0.69737574  0.14528296     0.15400
N786        N  0.86475577  0.71629948  0.13374829     0.74500
O787        O  0.78003164  0.60412162  0.10877564    -0.39000
O788        O  0.78765857  0.60266297  0.18987939    -0.38900
O789        O  0.86718702  0.72707189  0.09165262    -0.39600
O790        O  0.87488922  0.72889324  0.17366561    -0.39700
C791        C  0.41800330  0.97855211  0.72000444    -0.12000
C792        C  0.42077077  0.99555053  0.68287945     0.05100
C793        C  0.42985891  0.02001560  0.69838480    -0.07200
C794        C  0.43414895  0.02638145  0.75044484    -0.08000
C795        C  0.42967729  0.00890267  0.78789371    -0.02500
C796        C  0.42260650  0.98503754  0.77200284     0.04300
N797        N  0.41984809  0.96705243  0.80807845     0.66800
H798        H  0.41181260  0.95998347  0.70884063     0.15700
H799        H  0.43979961  0.04479510  0.76169670     0.15400
N800        N  0.43344954  0.03836335  0.66239430     0.74500
O801        O  0.39844159  0.95011363  0.82190855    -0.39000
O802        O  0.43800976  0.96507136  0.81718806    -0.38900
O803        O  0.41635735  0.04217846  0.65521064    -0.39600
O804        O  0.45502673  0.05398206  0.64683591    -0.39700
C805        C  0.31274563  0.98370437  0.21075283    -0.12000
C806        C  0.29032311  0.97496330  0.23671434     0.05100
C807        C  0.28152541  0.99059502  0.24289194    -0.07200
C808        C  0.29528016  0.01451926  0.22346572    -0.08000
C809        C  0.31798530  0.02331907  0.19896019    -0.02500
C810        C  0.32665883  0.00769252  0.19222971     0.04300
N811        N  0.34952857  0.01586150  0.16668349     0.66800
H812        H  0.31968045  0.97191853  0.20484608     0.15700
H813        H  0.28889093  0.02671344  0.23024093     0.15400
N814        N  0.25908137  0.98276939  0.26977990     0.74500
O815        O  0.36688810  0.01656114  0.19117738    -0.39000
O816        O  0.35012954  0.01639690  0.11823433    -0.38900
O817        O  0.25984246  0.98691299  0.31731212    -0.39600
O818        O  0.23950648  0.97594863  0.24482780    -0.39700
C819        C  0.17043143  0.82462946  0.28367932    -0.12000
C820        C  0.17948375  0.84723474  0.30834969     0.05100
C821        C  0.16311712  0.85067583  0.33740951    -0.07200
C822        C  0.13844743  0.83134601  0.34268365    -0.08000
C823        C  0.12954652  0.80852921  0.31899646    -0.02500
C824        C  0.14569584  0.80545944  0.28818866     0.04300
N825        N  0.13733108  0.78324472  0.26046749     0.66800
H826        H  0.18247321  0.82186731  0.25975875     0.15700
H827        H  0.12636954  0.83414611  0.36637476     0.15400
N828        N  0.17121070  0.87345350  0.36247412     0.74500
O829        O  0.12819508  0.78067380  0.21616338    -0.39000
O830        O  0.14400050  0.76905129  0.27490640    -0.38900
O831        O  0.16610484  0.88806517  0.34296751    -0.39600
O832        O  0.17908449  0.87674732  0.40809597    -0.39700
C833        C  0.32422370  0.91581578  0.34953866    -0.12000
C834        C  0.30043336  0.90477928  0.37054247     0.05100
C835        C  0.29767480  0.90201943  0.42439482    -0.07200
C836        C  0.31870206  0.91162886  0.45610648    -0.08000
C837        C  0.34265585  0.92493516  0.43516470    -0.02500
C838        C  0.34525246  0.92634297  0.38118576     0.04300
N839        N  0.36912645  0.93978496  0.35773845     0.66800
H840        H  0.32671394  0.91822881  0.30847020     0.15700
H841        H  0.31630449  0.91047740  0.49727585     0.15400
N842        N  0.27378541  0.89040521  0.44765797     0.74500
O843        O  0.37849512  0.92832335  0.34086679    -0.39000
O844        O  0.37778348  0.96156265  0.34309297    -0.38900
O845        O  0.26306804  0.86823765  0.46142954    -0.39600
O846        O  0.26625263  0.90345636  0.46481215    -0.39700
C847        C  0.50709365  0.01878210  0.46331959    -0.12000
C848        C  0.51408032  0.00247559  0.47788936     0.05100
C849        C  0.49644343  0.98004206  0.50158598    -0.07200
C850        C  0.47220924  0.97406665  0.50852625    -0.08000
C851        C  0.46510630  0.99019646  0.49297813    -0.02500
C852        C  0.48299865  0.01298064  0.47090153     0.04300
N853        N  0.47729328  0.03071148  0.45664967     0.66800
H854        H  0.52032355  0.03614369  0.44544542     0.15700
H855        H  0.45897848  0.95675616  0.52658832     0.15400
N856        N  0.50273407  0.96316054  0.51923210     0.74500
O857        O  0.47985061  0.04630115  0.48933964    -0.39000
O858        O  0.47517249  0.03419301  0.40973690    -0.38900
O859        O  0.50839854  0.96351518  0.56582919    -0.39600
O860        O  0.49757240  0.94494725  0.49170162    -0.39700
C861        C  0.54239687  0.97709385  0.20158367    -0.12000
C862        C  0.55829423  0.99472019  0.16564646     0.05100
C863        C  0.57495795  0.01917002  0.18293783    -0.07200
C864        C  0.57674167  0.02480229  0.23557007    -0.08000
C865        C  0.56187596  0.00669613  0.27183843    -0.02500
C866        C  0.54373344  0.98287736  0.25383989     0.04300
N867        N  0.52658333  0.96409683  0.28810285     0.66800
H868        H  0.52897443  0.95849031  0.18925710     0.15700
H869        H  0.59052235  0.04323734  0.24818830     0.15400
N870        N  0.59091608  0.03840641  0.14814427     0.74500
O871        O  0.50614465  0.96184803  0.29692862    -0.39000
O872        O  0.52933599  0.94680324  0.29985475    -0.38900
O873        O  0.58424992  0.05211372  0.13037038    -0.39600
O874        O  0.61338877  0.04526723  0.14531919    -0.39700
C875        C  0.68239724  0.99564492  0.66865485    -0.12000
C876        C  0.69771121  0.01326928  0.70505563     0.05100
C877        C  0.69907720  0.00592484  0.75524578    -0.07200
C878        C  0.68502993  0.98111019  0.76863172    -0.08000
C879        C  0.66886504  0.96345410  0.73306092    -0.02500
C880        C  0.66768743  0.97081350  0.68239673     0.04300
N881        N  0.65172056  0.95339457  0.64446659     0.66800
H882        H  0.68106765  0.00126139  0.63022525     0.15700
H883        H  0.68624716  0.97573584  0.80738046     0.15400
N884        N  0.71477714  0.02354875  0.79303231     0.74500
O885        O  0.63037120  0.94941990  0.63780720    -0.39000
O886        O  0.66077697  0.94664495  0.61049687    -0.38900
O887        O  0.70546389  0.02985100  0.82736617    -0.39600
O888        O  0.73664688  0.02876368  0.79826417    -0.39700
C889        C  0.65562142  0.07261129  0.61268424    -0.12000
C890        C  0.67930492  0.08480469  0.59068767     0.05100
C891        C  0.68149473  0.08902801  0.53713284    -0.07200
C892        C  0.66015280  0.07937172  0.50638452    -0.08000
C893        C  0.63639997  0.06481282  0.52778449    -0.02500
C894        C  0.63427000  0.06230111  0.58182805     0.04300
N895        N  0.61059802  0.04837070  0.60600090     0.66800
H896        H  0.65353263  0.06926873  0.65360023     0.15700
H897        H  0.66224780  0.08168554  0.46521335     0.15400
N898        N  0.70521745  0.10225132  0.51301165     0.74500
O899        O  0.60209611  0.02635171  0.61848427    -0.39000
O900        O  0.60143923  0.05949244  0.62581421    -0.38900
O901        O  0.71295660  0.09057708  0.48984302    -0.39600
O902        O  0.71555857  0.12498574  0.50500353    -0.39700
C903        C  0.10366171  0.35002084  0.01936139    -0.12000
C904        C  0.08995530  0.32477890  0.00738892     0.05100
C905        C  0.08244639  0.30766286  0.04766462    -0.07200
C906        C  0.08760737  0.31587982  0.09854797    -0.08000
C907        C  0.09986019  0.34104206  0.11081164    -0.02500
C908        C  0.10846401  0.35824352  0.07038983     0.04300
N909        N  0.12138923  0.38402619  0.08017407     0.66800
H910        H  0.10984396  0.36355683  0.98905229     0.15700
H911        H  0.08102371  0.30223879  0.12871789     0.15400
N912        N  0.06910173  0.28184632  0.03789417     0.74500
O913        O  0.14470875  0.39683589  0.07736269    -0.39000
O914        O  0.10960751  0.39453748  0.07999558    -0.38900
O915        O  0.08017214  0.27066524  0.04104495    -0.39600
O916        O  0.04574510  0.26967363  0.03640112    -0.39700
C917        C  0.17034649  0.33705270  0.76526701    -0.12000
C918        C  0.18061452  0.32857255  0.80070571     0.05100
C919        C  0.16579408  0.31304014  0.84106317    -0.07200
C920        C  0.14138232  0.30677418  0.84588499    -0.08000
C921        C  0.13134781  0.31581825  0.81129691    -0.02500
C922        C  0.14590485  0.33073125  0.77005284     0.04300
N923        N  0.13600207  0.33892430  0.73169145     0.66800
H924        H  0.18116018  0.34831614  0.73320083     0.15700
H925        H  0.13061939  0.29560821  0.87810692     0.15400
N926        N  0.17547608  0.30443299  0.87901465     0.74500
O927        O  0.14211891  0.36102010  0.73181473    -0.39000
O928        O  0.12654713  0.32618355  0.69164696    -0.38900
O929        O  0.18524486  0.31701152  0.91911659    -0.39600
O930        O  0.16899497  0.28222682  0.87839192    -0.39700
C931        C  0.98842932  0.32238072  0.56196922    -0.12000
C932        C  0.96254239  0.30898577  0.56530164     0.05100
C933        C  0.94965339  0.32009717  0.55076325    -0.07200
C934        C  0.96278096  0.34415495  0.53217834    -0.08000
C935        C  0.98866836  0.35757243  0.52898054    -0.02500
C936        C  0.00160041  0.34663920  0.54471253     0.04300
N937        N  0.02801833  0.35967645  0.54241927     0.66800
H938        H  0.99848041  0.31396356  0.57269103     0.15700
H939        H  0.95270263  0.35250057  0.52110560     0.15400
N940        N  0.92323460  0.30693240  0.55252226     0.74500
O941        O  0.04067102  0.37114032  0.58154114    -0.39000
O942        O  0.03813214  0.35537128  0.50616048    -0.38900
O943        O  0.91288125  0.31279462  0.58529530    -0.39600
O944        O  0.91066435  0.29298521  0.51575143    -0.39700
C945        C  0.84447541  0.15677704  0.60427126    -0.12000
C946        C  0.85341387  0.18043082  0.62342581     0.05100
C947        C  0.83680128  0.18498703  0.64837895    -0.07200
C948        C  0.81202123  0.16595541  0.65441030    -0.08000
C949        C  0.80315409  0.14218561  0.63601160    -0.02500
C950        C  0.81966299  0.13776541  0.61010057     0.04300
N951        N  0.81168572  0.11419370  0.58923684     0.66800
H952        H  0.85675756  0.15293530  0.58417335     0.15700
H953        H  0.79975967  0.16981946  0.67451692     0.15400
N954        N  0.84466817  0.20871964  0.66816450     0.74500
O955        O  0.80519208  0.10984146  0.54269185    -0.39000
O956        O  0.81665845  0.10035730  0.61298186    -0.38900
O957        O  0.84106676  0.22293685  0.64196476    -0.39600
O958        O  0.85018880  0.21325348  0.71512179    -0.39700
C959        C  0.96592482  0.23261949  0.74514376    -0.12000
C960        C  0.97170489  0.23408437  0.69262129     0.05100
C961        C  0.99626161  0.24246701  0.67862457    -0.07200
C962        C  0.01487037  0.25222720  0.71618919    -0.08000
C963        C  0.00952673  0.25361002  0.76783278    -0.02500
C964        C  0.98456411  0.24212668  0.78284576     0.04300
N965        N  0.97804499  0.24254627  0.83509452     0.66800
H966        H  0.94710222  0.22586508  0.75674492     0.15700
H967        H  0.03393000  0.26052578  0.70421325     0.15400
N968        N  0.00324517  0.24412270  0.62602126     0.74500
O969        O  0.97857198  0.26109479  0.85191872    -0.39000
O970        O  0.96707861  0.22284203  0.86062566    -0.38900
O971        O  0.01445292  0.26478197  0.60402251    -0.39600
O972        O  0.00325776  0.22644302  0.60573963    -0.39700
C973        C  0.67886243  0.66771566  0.58071192    -0.12000
C974        C  0.68961079  0.65380588  0.58328875     0.05100
C975        C  0.67594393  0.62911550  0.56732206    -0.07200
C976        C  0.65218612  0.61903710  0.54721782    -0.08000
C977        C  0.64149995  0.63300535  0.54394067    -0.02500
C978        C  0.65486091  0.65747570  0.56189010     0.04300
N979        N  0.64465009  0.67236448  0.56024319     0.66800
H980        H  0.68932726  0.68680241  0.59266371     0.15700
H981        H  0.64187980  0.59999233  0.53495925     0.15400
N982        N  0.68629299  0.61437515  0.56898216     0.74500
O983        O  0.63561996  0.67519781  0.60057712    -0.39000
O984        O  0.64978043  0.68683055  0.52296389    -0.38900
O985        O  0.68026496  0.59904052  0.60488779    -0.39600
O986        O  0.69684930  0.61289885  0.52966618    -0.39700
C987        C  0.55361766  0.57993692  0.70336709    -0.12000
C988        C  0.56579693  0.57417810  0.66727561     0.05100
C989        C  0.57886890  0.56348744  0.68474813    -0.07200
C990        C  0.58041977  0.55999661  0.73756155    -0.08000
C991        C  0.56913655  0.56685948  0.77383627    -0.02500
C992        C  0.55516207  0.57648936  0.75593938     0.04300
N993        N  0.54299161  0.58373116  0.79047068     0.66800
H994        H  0.54334402  0.58789340  0.69096600     0.15700
H995        H  0.59106053  0.55247759  0.75019615     0.15400
N996        N  0.59129412  0.55667983  0.64980753     0.74500
O997        O  0.55484544  0.60521342  0.80870805    -0.39000
O998        O  0.51964816  0.57121822  0.79253625    -0.38900
O999        O  0.61464252  0.56933291  0.64775992    -0.39600
O1000       O  0.57947670  0.53568118  0.62927966    -0.39700
C1001       C  0.66095656  0.67866709  0.22883138    -0.12000
C1002       C  0.67537523  0.70413768  0.23678873     0.05100
C1003       C  0.70131630  0.71682052  0.23191790    -0.07200
C1004       C  0.71228593  0.70393580  0.21806223    -0.08000
C1005       C  0.69778307  0.67847147  0.20979304    -0.02500
C1006       C  0.67188183  0.66575741  0.21585096     0.04300
N1007       N  0.65628765  0.63986339  0.20740347     0.66800
H1008       H  0.64098807  0.66866980  0.23227686     0.15700
H1009       H  0.73223521  0.71382452  0.21443131     0.15400
N1010       N  0.71667432  0.74279929  0.23916862     0.74500
O1011       O  0.64840030  0.62549257  0.24543785    -0.39000
O1012       O  0.64611744  0.63203259  0.16411903    -0.38900
O1013       O  0.72977733  0.75131340  0.27920164    -0.39600
O1014       O  0.72008698  0.75703725  0.20241859    -0.39700
C1015       C  0.68235419  0.77329767  0.08493014    -0.12000
C1016       C  0.65735116  0.75563981  0.09679575     0.05100
C1017       C  0.64089161  0.74225505  0.05626473    -0.07200
C1018       C  0.64947061  0.74668119  0.00569329    -0.08000
C1019       C  0.67443617  0.76402067  0.99383476    -0.02500
C1020       C  0.69097350  0.77751753  0.03407374     0.04300
N1021       N  0.71643588  0.79558641  0.02402249     0.66800
H1022       H  0.69543472  0.78381056  0.11537269     0.15700
H1023       H  0.63643249  0.73573825  0.97550080     0.15400
N1024       N  0.61568021  0.72321063  0.06560756     0.74500
O1025       O  0.72267248  0.81642986  0.00694507    -0.39000
O1026       O  0.73258013  0.79035226  0.02996447    -0.38900
O1027       O  0.59863272  0.72610693  0.05125195    -0.39600
O1028       O  0.61046244  0.70191957  0.07659675    -0.39700
C1029       C  0.57677730  0.66157527  0.32799719    -0.12000
C1030       C  0.58911305  0.68537229  0.34881682     0.05100
C1031       C  0.58964213  0.68796215  0.40279654    -0.07200
C1032       C  0.57915612  0.66711934  0.43454892    -0.08000
C1033       C  0.56919948  0.64354836  0.41384474    -0.02500
C1034       C  0.56746881  0.64082219  0.35980874     0.04300
N1035       N  0.55777758  0.61736930  0.33639729     0.66800
H1036       H  0.57637714  0.65916534  0.28685448     0.15700
H1037       H  0.58087809  0.66969010  0.47571265     0.15400
N1038       N  0.60216403  0.71167549  0.42630169     0.74500
O1039       O  0.53606977  0.60593172  0.31834639    -0.39000
O1040       O  0.57250376  0.61118698  0.32276360    -0.38900
O1041       O  0.58962870  0.71972159  0.44412062    -0.39600
O1042       O  0.62439656  0.72144155  0.44039410    -0.39700
C1043       C  0.30954037  0.36411284  0.41157188    -0.12000
C1044       C  0.30241715  0.34975920  0.36692991     0.05100
C1045       C  0.32000294  0.34841975  0.33811910    -0.07200
C1046       C  0.34429623  0.36027755  0.35588134    -0.08000
C1047       C  0.35129571  0.37330869  0.40257141    -0.02500
C1048       C  0.33396921  0.37613967  0.42943931     0.04300
N1049       N  0.34034616  0.38975120  0.47626642     0.66800
H1050       H  0.29583476  0.36489936  0.43398825     0.15700
H1051       H  0.35748122  0.35849169  0.33387893     0.15400
N1052       N  0.31311275  0.33379982  0.29261101     0.74500
O1053       O  0.34627838  0.41178663  0.47518349    -0.39000
O1054       O  0.33473419  0.37845974  0.51857745    -0.38900
O1055       O  0.31962873  0.34416775  0.24932059    -0.39600
O1056       O  0.30466132  0.31114319  0.29615250    -0.39700
C1057       C  0.47574171  0.48458663  0.51515456    -0.12000
C1058       C  0.48041279  0.47050906  0.48192714     0.05100
C1059       C  0.50236319  0.48240874  0.45249743    -0.07200
C1060       C  0.51876927  0.50788088  0.45604694    -0.08000
C1061       C  0.51383821  0.52202168  0.48843833    -0.02500
C1062       C  0.49215649  0.51005329  0.51874914     0.04300
N1063       N  0.48658556  0.52330563  0.55398396     0.66800
H1064       H  0.45903371  0.47588412  0.53787071     0.15700
H1065       H  0.53537335  0.51660859  0.43299320     0.15400
N1066       N  0.50782655  0.46918314  0.41698505     0.74500
O1067       O  0.47240551  0.53017362  0.54011938    -0.39000
O1068       O  0.49151230  0.52361473  0.60105079    -0.38900
O1069       O  0.50445817  0.47036170  0.36956265    -0.39600
O1070       O  0.52044635  0.46063383  0.43169501    -0.39700
C1071       C  0.43454051  0.42214334  0.19821402    -0.12000
C1072       C  0.41893649  0.43072316  0.18741512     0.05100
C1073       C  0.40996994  0.43771246  0.22877301    -0.07200
C1074       C  0.41522276  0.43443759  0.27925680    -0.08000
C1075       C  0.42918704  0.42404518  0.29009725    -0.02500
C1076       C  0.43959553  0.41863847  0.24883178     0.04300
N1077       N  0.45497009  0.40923890  0.25726535     0.66800
H1078       H  0.44208883  0.41707866  0.16721275     0.15700
H1079       H  0.40724709  0.43907340  0.31017039     0.15400
N1080       N  0.39456487  0.44709352  0.22062797     0.74500
O1081       O  0.44518589  0.38631429  0.25983871    -0.39000
O1082       O  0.47797829  0.42305295  0.24971266    -0.38900
O1083       O  0.37165203  0.43347287  0.22944227    -0.39600
O1084       O  0.40441322  0.46998383  0.21659013    -0.39700
C1085       C  0.31830494  0.30401294  0.74735716    -0.12000
C1086       C  0.30310039  0.27933350  0.73250790     0.05100
C1087       C  0.27716363  0.26739094  0.73576004    -0.07200
C1088       C  0.26690797  0.28053166  0.75255455    -0.08000
C1089       C  0.28229089  0.30548061  0.76553312    -0.02500
C1090       C  0.30815884  0.31708826  0.76378091     0.04300
N1091       N  0.32446247  0.34224238  0.77820648     0.66800
H1092       H  0.33816851  0.31336709  0.74585372     0.15700
H1093       H  0.24718285  0.27166099  0.75306484     0.15400
N1094       N  0.26101165  0.24207334  0.72246008     0.74500
O1095       O  0.33107784  0.34748297  0.82452927    -0.39000
O1096       O  0.33635926  0.35815040  0.74388898    -0.38900
O1097       O  0.25281142  0.22598533  0.75732806    -0.39600
O1098       O  0.25124795  0.23635608  0.67838470    -0.39700
C1099       C  0.30828192  0.20860746  0.86870809    -0.12000
C1100       C  0.33137321  0.22874290  0.85238727     0.05100
C1101       C  0.34830886  0.24472243  0.89000825    -0.07200
C1102       C  0.34147332  0.24106488  0.94195763    -0.08000
C1103       C  0.31781692  0.22181874  0.95787185    -0.02500
C1104       C  0.30139859  0.20508253  0.92068630     0.04300
N1105       N  0.27768336  0.18443339  0.93481265     0.66800
H1106       H  0.29506072  0.19586680  0.84075375     0.15700
H1107       H  0.35449613  0.25413851  0.96974974     0.15400
N1108       N  0.37189634  0.26567176  0.87620974     0.74500
O1109       O  0.25923093  0.18647973  0.93555060    -0.39000
O1110       O  0.27429105  0.16332982  0.93602815    -0.38900
O1111       O  0.37406159  0.28604011  0.86910724    -0.39600
O1112       O  0.39108623  0.26518396  0.88309859    -0.39700
C1113       C  0.40195724  0.32386009  0.61717502    -0.12000
C1114       C  0.38573390  0.30071069  0.59501175     0.05100
C1115       C  0.38252790  0.29921724  0.54106759    -0.07200
C1116       C  0.39499290  0.32064590  0.51088486    -0.08000
C1117       C  0.40983019  0.34394243  0.53353850    -0.02500
C1118       C  0.41344063  0.34536428  0.58727578     0.04300
N1119       N  0.42801827  0.36857309  0.61243480     0.66800
H1120       H  0.40444415  0.32549797  0.65841716     0.15700
H1121       H  0.39164476  0.31917214  0.46989521     0.15400
N1122       N  0.36601676  0.27623066  0.51639373     0.74500
O1123       O  0.45022578  0.37654810  0.62399787    -0.39000
O1124       O  0.41742057  0.37819016  0.63274389    -0.38900
O1125       O  0.34412248  0.27006830  0.50651021    -0.39600
O1126       O  0.37465949  0.26500732  0.49480932    -0.39700
C1127       C  0.32060734  0.00341122  0.58861945    -0.12000
C1128       C  0.33397815  0.02906548  0.59272746     0.05100
C1129       C  0.35966102  0.04287231  0.58318760    -0.07200
C1130       C  0.37121063  0.03087932  0.56732855    -0.08000
C1131       C  0.35770366  0.00525096  0.56241064    -0.02500
C1132       C  0.33225346  0.99137810  0.57430917     0.04300
N1133       N  0.31775609  0.96517694  0.57030967     0.66800
H1134       H  0.30082845  0.99260824  0.59573984     0.15700
H1135       H  0.39091252  0.04165702  0.55946129     0.15400
N1136       N  0.37409936  0.06903791  0.58739598     0.74500
O1137       O  0.31552336  0.95239335  0.60906230    -0.39000
O1138       O  0.30298420  0.95516375  0.53302981    -0.38900
O1139       O  0.38648847  0.07880373  0.62781401    -0.39600
O1140       O  0.37917828  0.08192521  0.54738620    -0.39700
C1141       C  0.33899665  0.07841123  0.43543077    -0.12000
C1142       C  0.31718399  0.07781015  0.44554172     0.05100
C1143       C  0.30570497  0.08274040  0.40560700    -0.07200
C1144       C  0.31637040  0.08849717  0.35662090    -0.08000
C1145       C  0.33835778  0.08932220  0.34666237    -0.02500
C1146       C  0.34950803  0.08389673  0.38649116     0.04300
N1147       N  0.37050720  0.08229297  0.37722041     0.66800
H1148       H  0.34770054  0.07409111  0.46553244     0.15700
H1149       H  0.30746060  0.09244379  0.32628010     0.15400
N1150       N  0.28396182  0.08307938  0.41460322     0.74500
O1151       O  0.39168278  0.09947027  0.39182073    -0.39000
O1152       O  0.36724450  0.06198738  0.36401507    -0.38900
O1153       O  0.28605082  0.10316582  0.42486689    -0.39600
O1154       O  0.26304232  0.06466480  0.40239147    -0.39700
C1155       C  0.33930432  0.17222614  0.65796016    -0.12000
C1156       C  0.32239885  0.17877172  0.64505077     0.05100
C1157       C  0.29939354  0.16091186  0.62294754    -0.07200
C1158       C  0.29375310  0.13702705  0.61509034    -0.08000
C1159       C  0.31044584  0.13038737  0.62959726    -0.02500
C1160       C  0.33356796  0.14838639  0.65077306     0.04300
N1161       N  0.35156197  0.14291744  0.66527416     0.66800
H1162       H  0.35709696  0.18560140  0.67491342     0.15700
H1163       H  0.27597324  0.12349583  0.59833371     0.15400
N1164       N  0.28129868  0.16639171  0.60940329     0.74500
O1165       O  0.36678295  0.14461969  0.63232621    -0.39000
O1166       O  0.35548716  0.14148398  0.71227747    -0.38900
O1167       O  0.27838385  0.16968353  0.56281133    -0.39600
O1168       O  0.26476530  0.16224282  0.64145756    -0.39700
C1169       C  0.34082085  0.99896296  0.89882064    -0.12000
C1170       C  0.35039429  0.98647948  0.92365658     0.05100
C1171       C  0.33474922  0.96093474  0.93194451    -0.07200
C1172       C  0.31064561  0.94822119  0.91217401    -0.08000
C1173       C  0.30151722  0.96071118  0.88627855    -0.02500
C1174       C  0.31652012  0.98629951  0.88050689     0.04300
N1175       N  0.30765564  0.99940758  0.85379515     0.66800
H1176       H  0.35247373  0.01860308  0.89216206     0.15700
H1177       H  0.29879596  0.92856930  0.91805608     0.15400
N1178       N  0.34298451  0.94761435  0.95991381     0.74500
O1179       O  0.30122397  0.01177542  0.87864888    -0.39000
O1180       O  0.30390643  0.99663265  0.80596404    -0.38900
O1181       O  0.33995678  0.94530713  0.00793758    -0.39600
O1182       O  0.34844404  0.93423316  0.93604239    -0.39700
C1183       C  0.22934058  0.98910791  0.77152659    -0.12000
C1184       C  0.22499950  0.96673229  0.75300261     0.05100
C1185       C  0.22609031  0.96387314  0.69940468    -0.07200
C1186       C  0.23410560  0.98397745  0.66654702    -0.08000
C1187       C  0.24173583  0.00720966  0.68613606    -0.02500
C1188       C  0.23796589  0.00938943  0.73870793     0.04300
N1189       N  0.24370077  0.03227464  0.75976057     0.66800
H1190       H  0.22810459  0.99156040  0.81228564     0.15700
H1191       H  0.23666100  0.98189767  0.62620461     0.15400
N1192       N  0.22057795  0.94113817  0.67787521     0.74500
O1193       O  0.22625947  0.03497875  0.77145205    -0.39000
O1194       O  0.26512833  0.04717003  0.77725944    -0.38900
O1195       O  0.19970895  0.92700212  0.65721487    -0.39600
O1196       O  0.23805539  0.93817272  0.66837957    -0.39700
C1197       C  0.21299532  0.90790243  0.04656591    -0.12000
C1198       C  0.22438885  0.90123401  0.01034585     0.05100
C1199       C  0.23757035  0.89068283  0.02793105    -0.07200
C1200       C  0.24006699  0.88824051  0.08069757    -0.08000
C1201       C  0.22965733  0.89601324  0.11696573    -0.02500
C1202       C  0.21542425  0.90537332  0.09927241     0.04300
N1203       N  0.20397312  0.91328407  0.13412275     0.66800
H1204       H  0.20266987  0.91580223  0.03408465     0.15700
H1205       H  0.25094068  0.88094739  0.09323679     0.15400
N1206       N  0.24963820  0.88341978  0.99313530     0.74500
O1207       O  0.21460977  0.93582937  0.14463044    -0.39000
O1208       O  0.18143523  0.89884779  0.14537930    -0.38900
O1209       O  0.27293039  0.89633972  0.98961491    -0.39600
O1210       O  0.23794316  0.86176902  0.97582306    -0.39700
C1211       C  0.97289517  0.65672908  0.04072139    -0.12000
C1212       C  0.95087913  0.64501600  0.06950962     0.05100
C1213       C  0.93897441  0.61963674  0.07994123    -0.07200
C1214       C  0.94912900  0.60661976  0.06129555    -0.08000
C1215       C  0.97172200  0.61876293  0.03497649    -0.02500
C1216       C  0.98350080  0.64393980  0.02420040     0.04300
N1217       N  0.00612525  0.65671214  0.99586127     0.66800
H1218       H  0.98217074  0.67600102  0.03135812     0.15700
H1219       H  0.94012485  0.58736731  0.06985302     0.15400
N1220       N  0.91726974  0.60700387  0.11110887     0.74500
O1221       O  0.00555904  0.66050783  0.94846818    -0.39000
O1222       O  0.02652033  0.66817738  0.01958853    -0.38900
O1223       O  0.89674715  0.59134793  0.09092080    -0.39600
O1224       O  0.91953935  0.60766375  0.15935477    -0.39700
C1225       C  0.00526493  0.56629879  0.21569649    -0.12000
C1226       C  0.98769929  0.56252755  0.17858158     0.05100
C1227       C  0.96288994  0.55251092  0.19427034    -0.07200
C1228       C  0.95652456  0.54771904  0.24629344    -0.08000
C1229       C  0.97438368  0.55273182  0.28366925    -0.02500
C1230       C  0.99882813  0.56126408  0.26766197     0.04300
N1231       N  0.01741850  0.56487754  0.30352369     0.66800
H1232       H  0.02416269  0.57329053  0.20444919     0.15700
H1233       H  0.93776915  0.54129471  0.25763818     0.15400
N1234       N  0.94421447  0.54885521  0.15869235     0.74500
O1235       O  0.01860633  0.54677542  0.31673263    -0.39000
O1236       O  0.03561569  0.58634099  0.31231778    -0.38900
O1237       O  0.92747724  0.52728416  0.14582235    -0.39600
O1238       O  0.94094184  0.56613811  0.15091075    -0.39700
C1239       C  0.00267835  0.70218646  0.73820832    -0.12000
C1240       C  0.01513637  0.68988689  0.73484671     0.05100
C1241       C  0.00222393  0.66542590  0.71666993    -0.07200
C1242       C  0.97725425  0.65368354  0.70341343    -0.08000
C1243       C  0.96486246  0.66594767  0.70702213    -0.02500
C1244       C  0.97771314  0.69044878  0.72435573     0.04300
N1245       N  0.96530224  0.70305934  0.73154229     0.66800
H1246       H  0.01228377  0.72095309  0.75185509     0.15700
H1247       H  0.96740504  0.63474843  0.69073502     0.15400
N1248       N  0.01387517  0.65192650  0.71276587     0.74500
O1249       O  0.95533612  0.70156421  0.77424427    -0.39000
O1250       O  0.96875947  0.71941646  0.69991539    -0.38900
O1251       O  0.01120761  0.63752262  0.74856601    -0.39600
O1252       O  0.02181613  0.65020463  0.66975474    -0.39700
C1253       C  0.13457843  0.81327231  0.82472847    -0.12000
C1254       C  0.14282316  0.79898132  0.80369726     0.05100
C1255       C  0.16780127  0.81059796  0.78837502    -0.07200
C1256       C  0.18388407  0.83593770  0.79481130    -0.08000
C1257       C  0.17562580  0.85014955  0.81621756    -0.02500
C1258       C  0.15058798  0.83858220  0.83082695     0.04300
N1259       N  0.14092387  0.85215807  0.85151981     0.66800
H1260       H  0.11543692  0.80488907  0.83586553     0.15700
H1261       H  0.20303117  0.84440632  0.78363564     0.15400
N1262       N  0.17724900  0.79713624  0.76605831     0.74500
O1263       O  0.13020870  0.85908735  0.82204729    -0.39000
O1264       O  0.13839283  0.85255685  0.89947888    -0.38900
O1265       O  0.18023148  0.79784663  0.71805736    -0.39600
O1266       O  0.18783318  0.78967585  0.79445990    -0.39700
C1267       C  0.07201301  0.66125336  0.95607837    -0.12000
C1268       C  0.06214337  0.63761541  0.93598766     0.05100
C1269       C  0.06550752  0.63511466  0.88333561    -0.07200
C1270       C  0.07680225  0.65583646  0.85121657    -0.08000
C1271       C  0.08428766  0.67914319  0.87035295    -0.02500
C1272       C  0.08265254  0.68188835  0.92381463     0.04300
N1273       N  0.09055101  0.70525662  0.94580052     0.66800
H1274       H  0.06958523  0.66353710  0.99629259     0.15700
H1275       H  0.07802503  0.65332798  0.81054102     0.15400
N1276       N  0.05693485  0.61157898  0.86152847     0.74500
O1277       O  0.07509865  0.71142618  0.95107965    -0.39000
O1278       O  0.11062460  0.71662950  0.97067881    -0.38900
O1279       O  0.03747435  0.60109900  0.83458049    -0.39600
O1280       O  0.07153117  0.60422773  0.85913341    -0.39700
C1281       C  0.09156892  0.72988353  0.57594523    -0.12000
C1282       C  0.09497140  0.74748804  0.61195593     0.05100
C1283       C  0.09366597  0.76762309  0.59544651    -0.07200
C1284       C  0.08796823  0.76914808  0.54421257    -0.08000
C1285       C  0.08333005  0.75085847  0.50889807    -0.02500
C1286       C  0.08542527  0.73117039  0.52498430     0.04300
N1287       N  0.07860984  0.71087158  0.49184423     0.66800
H1288       H  0.09182892  0.71402726  0.58812474     0.15700
H1289       H  0.08672785  0.78447392  0.53226677     0.15400
N1290       N  0.09755404  0.78645205  0.63026626     0.74500
O1291       O  0.09528387  0.70950457  0.46976849    -0.39000
O1292       O  0.05696756  0.69198512  0.49449825    -0.38900
O1293       O  0.11828942  0.80656821  0.63094330    -0.39600
O1294       O  0.07906519  0.78537473  0.64998881    -0.39700
C1295       C  0.02569112  0.37040046  0.93232952    -0.12000
C1296       C  0.01740001  0.37754978  0.89039894     0.05100
C1297       C  0.02326608  0.37439046  0.83998599    -0.07200
C1298       C  0.03563081  0.36232135  0.83221426    -0.08000
C1299       C  0.04172115  0.35301028  0.87409473    -0.02500
C1300       C  0.03766049  0.35799482  0.92454040     0.04300
N1301       N  0.04565060  0.35061068  0.96820222     0.66800
H1302       H  0.02175265  0.37330036  0.97107603     0.15700
H1303       H  0.03921394  0.35904657  0.79347393     0.15400
N1304       N  0.01690000  0.38341372  0.79645150     0.74500
O1305       O  0.03057941  0.33066827  0.99060029    -0.39000
O1306       O  0.06559622  0.36617529  0.99045605    -0.38900
O1307       O  0.03376091  0.40207537  0.77296606    -0.39600
O1308       O  0.99610619  0.36989311  0.77502865    -0.39700
C1309       C  0.00595027  0.48513368  0.98253210    -0.12000
C1310       C  0.98290303  0.46809760  0.96019957     0.05100
C1311       C  0.96617433  0.47539608  0.95006942    -0.07200
C1312       C  0.97285201  0.49934274  0.96148504    -0.08000
C1313       C  0.99595917  0.51643956  0.98340198    -0.02500
C1314       C  0.01257497  0.50904683  0.99427081     0.04300
N1315       N  0.03636544  0.52554233  0.01660252     0.66800
H1316       H  0.01914680  0.48003227  0.99046259     0.15700
H1317       H  0.95965563  0.50444541  0.95355188     0.15400
N1318       N  0.94222517  0.45877372  0.92861690     0.74500
O1319       O  0.03911315  0.52523861  0.06455827    -0.39000
O1320       O  0.05523496  0.53603148  0.98813971    -0.38900
O1321       O  0.92359611  0.44844780  0.95775155    -0.39600
O1322       O  0.93910338  0.45864443  0.88071462    -0.39700
C1323       C  0.97166787  0.41032291  0.72044900    -0.12000
C1324       C  0.98911431  0.42411872  0.75876909     0.05100
C1325       C  0.01388855  0.44165237  0.74394104    -0.07200
C1326       C  0.02075078  0.44427407  0.69202996    -0.08000
C1327       C  0.00340019  0.42990471  0.65396508    -0.02500
C1328       C  0.97850711  0.41293438  0.66872856     0.04300
N1329       N  0.96010196  0.39705269  0.63212701     0.66800
H1330       H  0.95272870  0.39661014  0.73075739     0.15700
H1331       H  0.03981290  0.45745483  0.68161785     0.15400
N1332       N  0.03248980  0.45674102  0.78100261     0.74500
O1333       O  0.95738543  0.37678431  0.62078152    -0.39000
O1334       O  0.94633533  0.40311432  0.61160725    -0.38900
O1335       O  0.04926995  0.45284243  0.79156744    -0.39600
O1336       O  0.03486537  0.47650760  0.79543650    -0.39700
C1337       C  0.98216348  0.27884215  0.22238829    -0.12000
C1338       C  0.97378486  0.29197028  0.19622159     0.05100
C1339       C  0.98968222  0.31742740  0.18971326    -0.07200
C1340       C  0.01366156  0.32943308  0.20910064    -0.08000
C1341       C  0.02230481  0.31657004  0.23560193    -0.02500
C1342       C  0.00621746  0.29095562  0.24265628     0.04300
N1343       N  0.01370256  0.27706980  0.27086311     0.66800
H1344       H  0.96962821  0.25927352  0.22906057     0.15700
H1345       H  0.02564549  0.34908721  0.20290801     0.15400
N1346       N  0.98181132  0.33135823  0.16302220     0.74500
O1347       O  0.00827487  0.27278060  0.31786061    -0.39000
O1348       O  0.02021900  0.26455509  0.24687782    -0.38900
O1349       O  0.97853216  0.34607378  0.18787568    -0.39600
O1350       O  0.98386581  0.33326199  0.11479231    -0.39700
C1351       C  0.92262357  0.35089363  0.05960155    -0.12000
C1352       C  0.92138177  0.34624549  0.00651479     0.05100
C1353       C  0.90740992  0.32159939  0.98969077    -0.07200
C1354       C  0.89790780  0.30239693  0.02570107    -0.08000
C1355       C  0.90107967  0.30713351  0.07875959    -0.02500
C1356       C  0.91207464  0.33162792  0.09559547     0.04300
N1357       N  0.91433910  0.33744830  0.14906148     0.66800
H1358       H  0.93271395  0.36964444  0.07339708     0.15700
H1359       H  0.88908844  0.28371158  0.01195572     0.15400
N1360       N  0.90441533  0.31565722  0.93629734     0.74500
O1361       O  0.93498488  0.34637956  0.17119100    -0.39000
O1362       O  0.89746235  0.33855059  0.17093297    -0.38900
O1363       O  0.91818512  0.30978843  0.91533298    -0.39600
O1364       O  0.88478870  0.31072714  0.91384482    -0.39700
C1365       C  0.91284811  0.22931197  0.34180873    -0.12000
C1366       C  0.89755641  0.23805038  0.32932958     0.05100
C1367       C  0.88593680  0.24265536  0.36939031    -0.07200
C1368       C  0.89058334  0.23950221  0.42048974    -0.08000
C1369       C  0.90676380  0.23181822  0.43298728    -0.02500
C1370       C  0.91757279  0.22625149  0.39284178     0.04300
N1371       N  0.93418304  0.21845679  0.40289468     0.66800
H1372       H  0.92196924  0.22555197  0.31182571     0.15700
H1373       H  0.88179263  0.24362326  0.45055798     0.15400
N1374       N  0.86944977  0.25058185  0.35918367     0.74500
O1375       O  0.92591333  0.19579396  0.40421472    -0.39000
O1376       O  0.95721308  0.23373455  0.39912312    -0.38900
O1377       O  0.84639238  0.23506287  0.36007072    -0.39600
O1378       O  0.87749252  0.27318249  0.36121214    -0.39700
C1379       C  0.66811289  0.00190373  0.07139671    -0.12000
C1380       C  0.68151086  0.02695657  0.08427797     0.05100
C1381       C  0.66978857  0.04011090  0.08193047    -0.07200
C1382       C  0.64563011  0.02853415  0.06330702    -0.08000
C1383       C  0.63264869  0.00380353  0.04888227    -0.02500
C1384       C  0.64369316  0.99017074  0.05427814     0.04300
N1385       N  0.63088726  0.96485806  0.03974975     0.66800
H1386       H  0.67686473  0.99157879  0.07301682     0.15700
H1387       H  0.63684460  0.03880977  0.06088240     0.15400
N1388       N  0.68231858  0.06537610  0.09644518     0.74500
O1389       O  0.63193825  0.95924421  0.99386610    -0.39000
O1390       O  0.62260709  0.94848242  0.07402576    -0.38900
O1391       O  0.68828191  0.08150331  0.06231496    -0.39600
O1392       O  0.68216084  0.07079063  0.14291824    -0.39700
C1393       C  0.83457720  0.14343361  0.11222237    -0.12000
C1394       C  0.81001083  0.13421333  0.12659971     0.05100
C1395       C  0.80371198  0.15073553  0.14448993    -0.07200
C1396       C  0.82189184  0.17577008  0.14813089    -0.08000
C1397       C  0.84656558  0.18497319  0.13471248    -0.02500
C1398       C  0.85285726  0.16847397  0.11640810     0.04300
N1399       N  0.87776657  0.17650020  0.10360785     0.66800
H1400       H  0.83977809  0.13113826  0.09811362     0.15700
H1401       H  0.81662809  0.18799982  0.16237266     0.15400
N1402       N  0.77897999  0.14255324  0.15916648     0.74500
O1403       O  0.89220758  0.17807513  0.13860708    -0.39000
O1404       O  0.88331883  0.17620975  0.05728160    -0.38900
O1405       O  0.77328042  0.13957045  0.20613178    -0.39600
O1406       O  0.76465425  0.14324419  0.12690980    -0.39700
C1407       C  0.74693121  0.09304291  0.92590130    -0.12000
C1408       C  0.75928680  0.08112468  0.93822449     0.05100
C1409       C  0.77005403  0.07545871  0.89808194    -0.07200
C1410       C  0.76737291  0.08076220  0.84708129    -0.08000
C1411       C  0.75363425  0.09124307  0.83460237    -0.02500
C1412       C  0.74397879  0.09803993  0.87497883     0.04300
N1413       N  0.73064776  0.10955123  0.86526501     0.66800
H1414       H  0.73881268  0.09800081  0.95588253     0.15700
H1415       H  0.77537387  0.07575399  0.81695772     0.15400
N1416       N  0.78320624  0.06377715  0.90796055     0.74500
O1417       O  0.70730436  0.09656231  0.86325731    -0.39000
O1418       O  0.74152094  0.13250172  0.87073172    -0.38900
O1419       O  0.77263280  0.04100660  0.90010402    -0.39600
O1420       O  0.80643456  0.07677003  0.91317523    -0.39700
C1421       C  0.63984800  0.99386438  0.39238774    -0.12000
C1422       C  0.61403584  0.98010418  0.39734315     0.05100
C1423       C  0.60051960  0.95470718  0.38700891    -0.07200
C1424       C  0.61309270  0.94341616  0.37336493    -0.08000
C1425       C  0.63901097  0.95708326  0.37018043    -0.02500
C1426       C  0.65241322  0.98264844  0.37893875     0.04300
N1427       N  0.67873531  0.99758181  0.37355982     0.66800
H1428       H  0.65042924  0.01353163  0.39915581     0.15700
H1429       H  0.60255029  0.92375502  0.36654376     0.15400
N1430       N  0.57408452  0.94036028  0.38802652     0.74500
O1431       O  0.68799963  0.00558875  0.32974725    -0.39000
O1432       O  0.69216038  0.00678681  0.41299348    -0.38900
O1433       O  0.56224087  0.93581218  0.34643629    -0.39600
O1434       O  0.56303693  0.92797219  0.42755360    -0.39700
C1435       C  0.63149605  0.88577431  0.52537691    -0.12000
C1436       C  0.65686823  0.89955913  0.51264081     0.05100
C1437       C  0.67436478  0.90667371  0.55253382    -0.07200
C1438       C  0.66635875  0.90035518  0.60345005    -0.08000
C1439       C  0.64104655  0.88756084  0.61644984    -0.02500
C1440       C  0.62351044  0.88003570  0.57652604     0.04300
N1441       N  0.59761531  0.86747435  0.58708593     0.66800
H1442       H  0.61762524  0.88011327  0.49559436     0.15700
H1443       H  0.68030274  0.90655741  0.63324925     0.15400
N1444       N  0.70035846  0.92110708  0.54259938     0.74500
O1445       O  0.58804952  0.87975373  0.59597185    -0.39000
O1446       O  0.58376467  0.84487776  0.57695148    -0.38900
O1447       O  0.71240976  0.94386128  0.55185790    -0.39600
O1448       O  0.71186220  0.91053346  0.53605170    -0.39700
C1449       C  0.74376039  0.99324508  0.27609104    -0.12000
C1450       C  0.72579123  0.96984149  0.25733274     0.05100
C1451       C  0.72244002  0.96640956  0.20357605    -0.07200
C1452       C  0.73542355  0.98653710  0.17030541    -0.08000
C1453       C  0.75141400  0.01036843  0.18948612    -0.02500
C1454       C  0.75633090  0.01347390  0.24278232     0.04300
N1455       N  0.77332665  0.03720759  0.26395659     0.66800
H1456       H  0.74677855  0.99626578  0.31699520     0.15700
H1457       H  0.73132836  0.98375827  0.12964994     0.15400
N1458       N  0.70483559  0.94288085  0.18217140     0.74500
O1459       O  0.76515175  0.04871764  0.28616691    -0.39000
O1460       O  0.79565388  0.04403045  0.27038929    -0.38900
O1461       O  0.68436154  0.93860450  0.16563852    -0.39600
O1462       O  0.71151787  0.92834967  0.17103017    -0.39700
C1463       C  0.67682721  0.84707844  0.32862087    -0.12000
C1464       C  0.66049743  0.85362731  0.31085544     0.05100
C1465       C  0.63968980  0.83651792  0.28141619    -0.07200
C1466       C  0.63525546  0.81316608  0.27184979    -0.08000
C1467       C  0.65136307  0.80646789  0.29062559    -0.02500
C1468       C  0.67255298  0.82390398  0.31869165     0.04300
N1469       N  0.69007774  0.81856207  0.33743365     0.66800
H1470       H  0.69297575  0.85989450  0.35086400     0.15700
H1471       H  0.61921123  0.80033114  0.24937950     0.15400
N1472       N  0.62302909  0.84252635  0.26033618     0.74500
O1473       O  0.70939507  0.82533698  0.31179984    -0.39000
O1474       O  0.68889901  0.81200395  0.38355800    -0.38900
O1475       O  0.62543146  0.84936121  0.21412215    -0.39600
O1476       O  0.60327806  0.83614348  0.28386724    -0.39700
loop_ 
_geom_bond_atom_site_label_1 
_geom_bond_atom_site_label_2 
_geom_bond_distance 
_geom_bond_site_symmetry_2 
_ccdc_geom_bond_type 
In1           O3   2.214       .  S
In1           O4   2.272       .  S
In1          O12   2.204       .  S
In1           O6   2.235       .  S
In1           O8   2.229       .  S
In1           O9   2.260       .  S
In1          O10   2.201       .  S
In1          O13   2.221       .  S
C2            O8   1.268       .  A
C2           O10   1.262       .  A
C2         C1425   1.468       .  S
O3           C11   1.261       .  A
O4           C11   1.272       .  A
C5           O12   1.266       .  A
C5            O6   1.267       .  A
C5         C1464   1.479       .  S
C7            O9   1.271       .  A
C7           O13   1.263       .  A
C7         C1450   1.487       .  S
C11        C1436   1.491       .  S
In14         O16   2.201       .  S
In14         O17   2.284       .  S
In14         O25   2.220       .  S
In14         O19   2.214       .  S
In14         O21   2.233       .  S
In14         O22   2.258       .  S
In14         O23   2.196       .  S
In14         O26   2.238       .  S
C15          O21   1.266       .  A
C15          O23   1.261       .  A
C15        C1380   1.465       .  S
O16          C24   1.258   1_554  A
O17          C24   1.272   1_554  A
C18          O25   1.267       .  A
C18          O19   1.264       .  A
C18        C1394   1.478       .  S
C20          O22   1.268       .  A
C20          O26   1.262       .  A
C20        C1453   1.485       .  S
C24        C1408   1.489       .  S
In27         O29   2.227       .  S
In27         O30   2.272       .  S
In27         O38   2.217       .  S
In27         O32   2.229       .  S
In27         O34   2.235       .  S
In27         O35   2.277       .  S
In27         O36   2.205       .  S
In27         O39   2.196       .  S
C28          O34   1.265       .  A
C28          O36   1.261       .  A
C28        C1338   1.460       .  S
O29          C37   1.263       .  A
O30          C37   1.269       .  A
C31          O38   1.267       .  A
C31          O32   1.265       .  A
C31        C1397   1.480       .  S
C33          O35   1.272       .  A
C33          O39   1.258       .  A
C33        C1366   1.484       .  S
C37        C1355   1.489       .  S
In40         O42   2.233       .  S
In40         O43   2.286       .  S
In40         O51   2.234       .  S
In40         O45   2.217       .  S
In40         O47   2.238   1_655  S
In40         O48   2.257       .  S
In40         O49   2.204       .  S
In40         O52   2.216       .  S
C41          O47   1.267       .  A
C41          O49   1.260   1_455  A
C41        C1296   1.461       .  S
O42          C50   1.261       .  A
O43          C50   1.269       .  A
C44          O51   1.266       .  A
C44          O45   1.266       .  A
C44        C1310   1.482       .  S
C46          O48   1.275       .  A
C46          O52   1.261       .  A
C46        C1324   1.488       .  S
C50        C1352   1.492   1_556  S
In53         O55   2.200       .  S
In53         O56   2.246       .  S
In53         O64   2.223       .  S
In53         O58   2.197       .  S
In53         O60   2.228       .  S
In53         O61   2.254       .  S
In53         O62   2.209       .  S
In53         O65   2.219       .  S
C54          O60   1.269       .  A
C54          O62   1.262       .  A
C54        C1240   1.474       .  S
O55          C63   1.261       .  A
O56          C63   1.274       .  A
C57          O64   1.267       .  A
C57          O58   1.268       .  A
C57        C1254   1.475       .  S
C59          O61   1.271       .  A
C59          O65   1.262       .  A
C59        C1271   1.485       .  S
C63        C1282   1.476       .  S
In66         O68   2.218   1_455  S
In66         O69   2.258       .  S
In66         O77   2.229       .  S
In66         O71   2.221   1_454  S
In66         O73   2.249   1_455  S
In66         O74   2.252       .  S
In66         O75   2.204       .  S
In66         O78   2.236   1_554  S
C67          O73   1.269       .  A
C67          O75   1.261   1_655  A
C67        C1215   1.467       .  S
O68          C76   1.260       .  A
O69          C76   1.272   1_455  A
C70          O77   1.265   1_556  A
C70          O71   1.268   1_455  A
C70        C1313   1.482   1_455  S
C72          O74   1.270   1_556  A
C72          O78   1.264       .  A
C72        C1268   1.483       .  S
C76        C1226   1.486       .  S
In79         O81   2.223       .  S
In79         O82   2.257       .  S
In79         O90   2.207       .  S
In79         O84   2.207       .  S
In79         O86   2.222       .  S
In79         O87   2.252       .  S
In79         O88   2.204       .  S
In79         O91   2.209       .  S
C80          O86   1.267       .  A
C80          O88   1.263       .  A
C80        C1173   1.460       .  S
O81          C89   1.263       .  A
O82          C89   1.271       .  A
C83          O90   1.266       .  A
C83          O84   1.268       .  A
C83        C1257   1.474       .  S
C85          O87   1.274       .  A
C85          O91   1.260       .  A
C85        C1198   1.485   1_556  S
C89        C1184   1.486       .  S
In92         O94   2.228       .  S
In92         O95   2.250       .  S
In92        O103   2.217       .  S
In92         O97   2.208       .  S
In92         O99   2.244       .  S
In92        O100   2.267       .  S
In92        O101   2.189       .  S
In92        O104   2.188       .  S
C93          O99   1.268       .  A
C93         O101   1.262       .  A
C93        C1128   1.464       .  S
O94         C102   1.263       .  A
O95         C102   1.268       .  A
C96         O103   1.266       .  A
C96          O97   1.265       .  A
C96        C1159   1.474       .  S
C98         O100   1.272       .  A
C98         O104   1.258       .  A
C98        C1142   1.472       .  S
C102       C1187   1.480       .  S
In105       O107   2.219       .  S
In105       O108   2.278       .  S
In105       O116   2.198       .  S
In105       O110   2.229       .  S
In105       O112   2.239       .  S
In105       O113   2.261       .  S
In105       O114   2.168       .  S
In105       O117   2.246       .  S
C106        O112   1.268       .  A
C106        O114   1.260       .  A
C106       C1086   1.464       .  S
O107        C115   1.261       .  A
O108        C115   1.271       .  A
C109        O116   1.267       .  A
C109        O110   1.265       .  A
C109       C1156   1.476       .  S
C111        O113   1.269       .  A
C111        O117   1.263       .  A
C111       C1114   1.491       .  S
C115       C1100   1.491       .  S
In118       O120   2.197       .  S
In118       O121   2.275       .  S
In118       O129   2.225       .  S
In118       O123   2.213       .  S
In118       O125   2.253       .  S
In118       O126   2.265       .  S
In118       O127   2.182       .  S
In118       O130   2.243       .  S
C119        O125   1.269       .  A
C119        O127   1.261       .  A
C119       C1047   1.471       .  S
O120        C128   1.261       .  A
O121        C128   1.275       .  A
C122        O129   1.267       .  A
C122        O123   1.267       .  A
C122       C1058   1.479       .  S
C124        O126   1.269       .  A
C124        O130   1.263       .  A
C124       C1117   1.489       .  S
C128       C1075   1.486       .  S
In131       O133   2.233       .  S
In131       O134   2.261       .  S
In131       O142   2.223       .  S
In131       O136   2.219       .  S
In131       O138   2.241       .  S
In131       O139   2.258       .  S
In131       O140   2.188       .  S
In131       O143   2.213       .  S
C132        O138   1.270       .  A
C132        O140   1.262       .  A
C132       C1002   1.469       .  S
O133        C141   1.264       .  A
O134        C141   1.271       .  A
C135        O142   1.267       .  A
C135        O136   1.267       .  A
C135       C1467   1.481       .  S
C137        O139   1.273       .  A
C137        O143   1.261       .  A
C137       C1016   1.487       .  S
C141       C1030   1.489       .  S
In144       O146   2.240       .  S
In144       O147   2.254       .  S
In144       O155   2.215       .  S
In144       O149   2.217       .  S
In144       O151   2.215       .  S
In144       O152   2.244       .  S
In144       O153   2.202       .  S
In144       O156   2.219       .  S
C145        O151   1.271       .  A
C145        O153   1.263       .  A
C145        C977   1.467       .  S
O146        C154   1.265       .  A
O147        C154   1.271       .  A
C148        O155   1.266       .  A
C148        O149   1.269       .  A
C148       C1061   1.479       .  S
C150        O152   1.276       .  A
C150        O156   1.262       .  A
C150        C988   1.486       .  S
C154       C1033   1.490       .  S
In157       O159   2.220       .  S
In157       O160   2.261       .  S
In157       O168   2.211       .  S
In157       O162   2.224       .  S
In157       O164   2.232       .  S
In157       O165   2.265       .  S
In157       O166   2.200       .  S
In157       O169   2.195       .  S
C158        O164   1.267       .  A
C158        O166   1.262       .  A
C158        C932   1.465       .  S
O159        C167   1.263       .  A
O160        C167   1.269       .  A
C161        O168   1.266       .  A
C161        O162   1.266       .  A
C161        C946   1.479       .  S
C163        O165   1.273       .  A
C163        O169   1.260       .  A
C163       C1369   1.484       .  S
C167        C960   1.485       .  S
In170       O172   2.211       .  S
In170       O173   2.275       .  S
In170       O181   2.209       .  S
In170       O175   2.232       .  S
In170       O177   2.248       .  S
In170       O178   2.249       .  S
In170       O179   2.199       .  S
In170       O182   2.208       .  S
C171        O177   1.267       .  A
C171        O179   1.259       .  A
C171       C1299   1.463       .  S
O172        C180   1.260       .  A
O173        C180   1.267       .  A
C174        O181   1.265       .  A
C174        O175   1.266       .  A
C174        C921   1.472       .  S
C176        O178   1.272       .  A
C176        O182   1.262       .  A
C176        C904   1.482   1_556  S
C180        C963   1.480       .  S
In183       O185   2.215       .  S
In183       O186   2.266       .  S
In183       O194   2.216       .  S
In183       O188   2.236       .  S
In183       O190   2.252       .  S
In183       O191   2.265       .  S
In183       O192   2.203       .  S
In183       O195   2.244       .  S
C184        O190   1.267       .  A
C184        O192   1.259       .  A
C184        C876   1.462       .  S
O185        C193   1.262       .  A
O186        C193   1.272       .  A
C187        O194   1.266       .  A
C187        O188   1.266       .  A
C187        C949   1.481       .  S
C189        O191   1.267       .  A
C189        O195   1.262       .  A
C189        C890   1.487       .  S
C193       C1411   1.489       .  S
In196       O198   2.217   1_545  S
In196       O199   2.275       .  S
In196       O207   2.206       .  S
In196       O201   2.224   1_545  S
In196       O203   2.236   1_545  S
In196       O204   2.265       .  S
In196       O205   2.191       .  S
In196       O208   2.241       .  S
C197        O203   1.267       .  A
C197        O205   1.261   1_565  A
C197       C1422   1.465       .  S
O198        C206   1.260   1_565  A
O199        C206   1.273       .  A
C200        O207   1.267       .  A
C200        O201   1.266   1_545  A
C200        C848   1.476       .  S
C202        O204   1.270       .  A
C202        O208   1.263       .  A
C202        C893   1.490       .  S
C206        C865   1.492       .  S
In209       O211   2.238       .  S
In209       O212   2.246       .  S
In209       O220   2.190       .  S
In209       O214   2.221       .  S
In209       O216   2.234       .  S
In209       O217   2.253       .  S
In209       O218   2.183       .  S
In209       O221   2.209       .  S
C210        O216   1.270       .  A
C210        O218   1.263       .  A
C210        C806   1.472       .  S
O211        C219   1.265       .  A
O212        C219   1.269       .  A
C213        O220   1.266       .  A
C213        O214   1.269       .  A
C213        C820   1.472       .  S
C215        O217   1.274       .  A
C215        O221   1.261       .  A
C215       C1201   1.486       .  S
C219        C834   1.483       .  S
In222       O224   2.220       .  S
In222       O225   2.253       .  S
In222       O233   2.204       .  S
In222       O227   2.213       .  S
In222       O229   2.215   1_565  S
In222       O230   2.247       .  S
In222       O231   2.189       .  S
In222       O234   2.204   1_565  S
C223        O229   1.272   1_565  A
C223        O231   1.264       .  A
C223       C1131   1.463   1_565  S
O224        C232   1.265       .  A
O225        C232   1.272       .  A
C226        O233   1.268       .  A
C226        O227   1.269       .  A
C226        C851   1.477       .  S
C228        O230   1.276       .  A
C228        O234   1.262   1_565  A
C228        C792   1.484       .  S
C232        C837   1.485       .  S
In235       O237   2.183       .  S
In235       O238   2.255       .  S
In235       O246   2.238       .  S
In235       O240   2.217       .  S
In235       O242   2.255       .  S
In235       O243   2.254       .  S
In235       O244   2.201       .  S
In235       O247   2.206       .  S
C236        O242   1.270       .  A
C236        O244   1.262       .  A
C236       C1212   1.481       .  S
O237        C245   1.261   1_554  A
O238        C245   1.273   1_554  A
C239        O246   1.267       .  A
C239        O240   1.268       .  A
C239        C778   1.480       .  S
C241        O243   1.269       .  A
C241        O247   1.264       .  A
C241        C764   1.476       .  S
C245        C750   1.478       .  S
In248       O250   2.204       .  S
In248       O251   2.240       .  S
In248       O259   2.196       .  S
In248       O253   2.219       .  S
In248       O255   2.211       .  S
In248       O256   2.245       .  S
In248       O257   2.198       .  S
In248       O260   2.198       .  S
C249        O255   1.271       .  A
C249        O257   1.264       .  A
C249        C736   1.463       .  S
O250        C258   1.262       .  A
O251        C258   1.274       .  A
C252        O259   1.266       .  A
C252        O253   1.269       .  A
C252        C823   1.474       .  S
C254        O256   1.271       .  A
C254        O260   1.265       .  A
C254        C767   1.477       .  S
C258       C1285   1.475       .  S
In261       O263   2.203       .  S
In261       O264   2.268       .  S
In261       O272   2.230       .  S
In261       O266   2.232   1_554  S
In261       O268   2.245       .  S
In261       O269   2.280       .  S
In261       O270   2.213       .  S
In261       O273   2.222   1_554  S
C262        O268   1.267       .  A
C262        O270   1.261       .  A
C262        C694   1.468       .  S
O263        C271   1.262       .  A
O264        C271   1.274       .  A
C265        O272   1.267       .  A
C265        O266   1.267   1_554  A
C265        C708   1.485   1_554  S
C267        O269   1.269   1_556  A
C267        O273   1.261       .  A
C267        C722   1.487       .  S
C271       C1072   1.488       .  S
In274       O276   2.216       .  S
In274       O277   2.267       .  S
In274       O285   2.210       .  S
In274       O279   2.231       .  S
In274       O281   2.229       .  S
In274       O282   2.267       .  S
In274       O283   2.189       .  S
In274       O286   2.225       .  S
C275        O281   1.266       .  A
C275        O283   1.261       .  A
C275       C1089   1.459       .  S
O276        C284   1.259       .  A
O277        C284   1.271       .  A
C278        O285   1.265       .  A
C278        O279   1.265       .  A
C278        C918   1.473       .  S
C280        O282   1.268       .  A
C280        O286   1.262       .  A
C280        C725   1.488       .  S
C284        C680   1.484       .  S
In287       O289   2.240       .  S
In287       O290   2.251       .  S
In287       O298   2.226       .  S
In287       O292   2.231       .  S
In287       O294   2.239       .  S
In287       O295   2.267       .  S
In287       O296   2.207       .  S
In287       O299   2.206       .  S
C288        O294   1.269       .  A
C288        O296   1.261       .  A
C288       C1005   1.470       .  S
O289        C297   1.264       .  A
O290        C297   1.269       .  A
C291        O298   1.266       .  A
C291        O292   1.267       .  A
C291        C781   1.482       .  S
C293        O295   1.273       .  A
C293        O299   1.260       .  A
C293        C652   1.488       .  S
C297        C666   1.485       .  S
In300       O302   2.231   1_556  S
In300       O303   2.260       .  S
In300       O311   2.221       .  S
In300       O305   2.243       .  S
In300       O307   2.238       .  S
In300       O308   2.270       .  S
In300       O309   2.206       .  S
In300       O312   2.206       .  S
C301        O307   1.269       .  A
C301        O309   1.261       .  A
C301        C638   1.467       .  S
O302        C310   1.264   1_554  A
O303        C310   1.269       .  A
C304        O311   1.266       .  A
C304        O305   1.267       .  A
C304        C711   1.486       .  S
C306        O308   1.272       .  A
C306        O312   1.259       .  A
C306        C991   1.489       .  S
C310        C669   1.488   1_556  S
In313       O315   2.252       .  S
In313       O316   2.260       .  S
In313       O324   2.246       .  S
In313       O318   2.224       .  S
In313       O320   2.253       .  S
In313       O321   2.274       .  S
In313       O322   2.202       .  S
In313       O325   2.189       .  S
C314        O320   1.269       .  A
C314        O322   1.262       .  A
C314        C641   1.476       .  S
O315        C323   1.265       .  A
O316        C323   1.269       .  A
C317        O324   1.267       .  A
C317        O318   1.267       .  A
C317        C610   1.490       .  S
C319        O321   1.274       .  A
C319        O325   1.259       .  A
C319       C1019   1.483       .  S
C323        C627   1.494       .  S
In326       O328   2.246       .  S
In326       O329   2.263       .  S
In326       O337   2.231       .  S
In326       O331   2.237       .  S
In326       O333   2.244       .  S
In326       O334   2.278       .  S
In326       O335   2.194       .  S
In326       O338   2.204       .  S
C327        O333   1.267       .  A
C327        O335   1.259       .  A
C327        C974   1.463       .  S
O328        C336   1.263       .  A
O329        C336   1.268       .  A
C330        O337   1.267       .  A
C330        O331   1.265       .  A
C330        C596   1.488       .  S
C332        O334   1.272       .  A
C332        O338   1.259       .  A
C332        C655   1.488       .  S
C336        C624   1.491       .  S
In339       O341   2.202       .  S
In339       O342   2.273       .  S
In339       O350   2.248       .  S
In339       O344   2.233       .  S
In339       O346   2.243       .  S
In339       O347   2.270       .  S
In339       O348   2.215       .  S
In339       O351   2.258       .  S
C340        O346   1.269       .  A
C340        O348   1.259       .  A
C340        C879   1.471       .  S
O341        C349   1.261       .  A
O342        C349   1.274       .  A
C343        O350   1.268       .  A
C343        O344   1.266       .  A
C343        C613   1.491       .  S
C345        O347   1.269       .  A
C345        O351   1.263       .  A
C345        C582   1.492       .  S
C349       C1439   1.489       .  S
In352       O354   2.234   1_565  S
In352       O355   2.258       .  S
In352       O363   2.204       .  S
In352       O357   2.228   1_554  S
In352       O359   2.202   1_565  S
In352       O360   2.262   1_554  S
In352       O361   2.187       .  S
In352       O364   2.242   1_554  S
C353        O359   1.272   1_565  A
C353        O361   1.264       .  A
C353       C1383   1.455   1_565  S
O354        C362   1.263   1_545  A
O355        C362   1.276       .  A
C356        O363   1.268   1_556  A
C356        O357   1.269       .  A
C356        C571   1.481       .  S
C358        O360   1.273       .  A
C358        O364   1.266       .  A
C358        C585   1.496       .  S
C362        C862   1.494       .  S
In365       O367   2.213       .  S
In365       O368   2.263       .  S
In365       O376   2.226       .  S
In365       O370   2.228       .  S
In365       O372   2.243       .  S
In365       O373   2.273       .  S
In365       O374   2.194       .  S
In365       O377   2.240       .  S
C366        O372   1.267       .  A
C366        O374   1.260       .  A
C366        C739   1.465       .  S
O367        C375   1.259       .  A
O368        C375   1.273       .  A
C369        O376   1.267       .  A
C369        O370   1.266       .  A
C369        C540   1.485       .  S
C371        O373   1.268       .  A
C371        O377   1.264       .  A
C371        C554   1.492       .  S
C375       C1229   1.484       .  S
In378       O380   2.184       .  S
In378       O381   2.276       .  S
In378       O389   2.238       .  S
In378       O383   2.231       .  S
In378       O385   2.246       .  S
In378       O386   2.275       .  S
In378       O387   2.208       .  S
In378       O390   2.231       .  S
C379        O385   1.265       .  A
C379        O387   1.260       .  A
C379       C1243   1.465       .  S
O380        C388   1.257       .  A
O381        C388   1.272       .  A
C382        O389   1.267       .  A
C382        O383   1.265       .  A
C382        C599   1.488       .  S
C384        O386   1.268       .  A
C384        O390   1.263       .  A
C384        C557   1.492       .  S
C388        C753   1.481       .  S
In391       O393   2.243       .  S
In391       O394   2.256       .  S
In391       O402   2.220       .  S
In391       O396   2.236   1_455  S
In391       O398   2.228   1_455  S
In391       O399   2.272       .  S
In391       O400   2.197       .  S
In391       O403   2.195   1_455  S
C392        O398   1.270   1_455  A
C392        O400   1.261       .  A
C392        C935   1.465   1_455  S
O393        C401   1.265       .  A
O394        C401   1.269       .  A
C395        O402   1.268       .  A
C395        O396   1.267   1_455  A
C395        C543   1.487   1_455  S
C397        O399   1.274       .  A
C397        O403   1.259   1_455  A
C397       C1327   1.487       .  S
C401        C529   1.489       .  S
In404       O406   2.247       .  S
In404       O407   2.258       .  S
In404       O415   2.229       .  S
In404       O409   2.218       .  S
In404       O411   2.259       .  S
In404       O412   2.276       .  S
In404       O413   2.182       .  S
In404       O416   2.200       .  S
C405        O411   1.268       .  A
C405        O413   1.261       .  A
C405       C1341   1.474       .  S
O406        C414   1.264       .  A
O407        C414   1.268       .  A
C408        O415   1.266       .  A
C408        O409   1.266       .  A
C408        C515   1.478       .  S
C410        O412   1.272       .  A
C410        O416   1.259       .  A
C410        C907   1.486       .  S
C414        C526   1.490       .  S
In417       O419   2.233   1_556  S
In417       O420   2.263       .  S
In417       O428   2.217       .  S
In417       O422   2.227       .  S
In417       O424   2.249   1_545  S
In417       O425   2.255       .  S
In417       O426   2.197       .  S
In417       O429   2.213   1_545  S
C418        O424   1.268   1_545  A
C418        O426   1.261       .  A
C418       C1170   1.475   1_545  S
O419        C427   1.264       .  A
O420        C427   1.267   1_556  A
C421        O428   1.266       .  A
C421        O422   1.267       .  A
C421        C568   1.481       .  S
C423        O425   1.272       .  A
C423        O429   1.260   1_545  A
C423        C795   1.482       .  S
C427        C498   1.488       .  S
In430       O432   2.216       .  S
In430       O433   2.265       .  S
In430       O441   2.253       .  S
In430       O435   2.214       .  S
In430       O437   2.235       .  S
In430       O438   2.258       .  S
In430       O439   2.213       .  S
In430       O442   2.198       .  S
C431        O437   1.265       .  A
C431        O439   1.259       .  A
C431        C809   1.460       .  S
O432        C440   1.263       .  A
O433        C440   1.269       .  A
C434        O441   1.267       .  A
C434        O435   1.265       .  A
C434        C487   1.487       .  S
C436        O438   1.272       .  A
C436        O442   1.258       .  A
C436       C1145   1.474       .  S
C440        C501   1.485       .  S
In443       O445   2.233       .  S
In443       O446   2.261       .  S
In443       O454   2.247       .  S
In443       O448   2.213       .  S
In443       O450   2.245       .  S
In443       O451   2.277       .  S
In443       O452   2.199       .  S
In443       O455   2.248       .  S
C444        O450   1.263       .  A
C444        O452   1.257       .  A
C444       C1044   1.451       .  S
O445        C453   1.258       .  A
O446        C453   1.270       .  A
C447        O454   1.266       .  A
C447        O448   1.262       .  A
C447        C512   1.477       .  S
C449        O451   1.265       .  A
C449        O455   1.262       .  A
C449        C470   1.494       .  S
C453        C683   1.485       .  S
In456       O458   2.211       .  S
In456       O459   2.274       .  S
In456       O467   2.229       .  S
In456       O461   2.237       .  S
In456       O463   2.239       .  S
In456       O464   2.279       .  S
In456       O465   2.194       .  S
In456       O468   2.245       .  S
C457        O463   1.268       .  A
C457        O465   1.260       .  A
C457        C697   1.459       .  S
O458        C466   1.262       .  A
O459        C466   1.274       .  A
C460        O467   1.267       .  A
C460        O461   1.266       .  A
C460        C484   1.484       .  S
C462        O464   1.269       .  A
C462        O468   1.262       .  A
C462        C473   1.496       .  S
C466       C1103   1.489   1_554  S
C469        C470   1.405       .  A
C469        C474   1.407       .  A
C469        H476   1.083       .  S
C470        C471   1.414       .  A
C471        C472   1.408       .  A
C471        N478   1.429       .  S
C472        C473   1.407       .  A
C472        H477   1.083       .  S
C473        C474   1.413       .  A
C474        N475   1.428       .  S
N475        O479   1.262       .  A
N475        O480   1.262       .  A
N478        O482   1.262       .  A
N478        O481   1.262       .  A
C483        C484   1.406       .  A
C483        C488   1.406       .  A
C483        H490   1.079       .  S
C484        C485   1.411       .  A
C485        C486   1.398       .  A
C485        N492   1.429       .  S
C486        C487   1.405       .  A
C486        H491   1.079       .  S
C487        C488   1.415       .  A
C488        N489   1.429       .  S
N489        O493   1.262       .  A
N489        O494   1.262       .  A
N492        O496   1.262       .  A
N492        O495   1.262       .  A
C497        C498   1.406       .  A
C497        C502   1.405       .  A
C497        H504   1.082       .  S
C498        C499   1.413       .  A
C499        C500   1.403       .  A
C499        N506   1.429   1_554  S
C500        C501   1.405       .  A
C500        H505   1.081       .  S
C501        C502   1.412       .  A
C502        N503   1.429       .  S
N503        O507   1.261       .  A
N503        O508   1.262       .  A
N506        O510   1.262       .  A
N506        O509   1.262       .  A
C511        C512   1.405       .  A
C511        C516   1.398       .  A
C511        H518   1.079       .  S
C512        C513   1.408       .  A
C513        C514   1.401       .  A
C513        N520   1.429       .  S
C514        C515   1.407       .  A
C514        H519   1.079       .  S
C515        C516   1.410       .  A
C516        N517   1.429       .  S
N517        O521   1.262       .  A
N517        O522   1.262       .  A
N520        O524   1.262       .  A
N520        O523   1.261       .  A
C525        C526   1.406       .  A
C525        C530   1.406       .  A
C525        H532   1.081       .  S
C526        C527   1.413       .  A
C527        C528   1.407       .  A
C527        N534   1.429       .  S
C528        C529   1.406       .  A
C528        H533   1.081       .  S
C529        C530   1.412       .  A
C530        N531   1.428       .  S
N531        O535   1.262       .  A
N531        O536   1.262       .  A
N534        O538   1.262       .  A
N534        O537   1.262       .  A
C539        C540   1.405       .  A
C539        C544   1.402       .  A
C539        H546   1.080       .  S
C540        C541   1.413   1_655  A
C541        C542   1.400       .  A
C541        N548   1.429       .  S
C542        C543   1.405   1_455  A
C542        H547   1.080       .  S
C543        C544   1.415       .  A
C544        N545   1.429       .  S
N545        O549   1.262       .  A
N545        O550   1.262       .  A
N548        O552   1.262       .  A
N548        O551   1.262       .  A
C553        C554   1.406       .  A
C553        C558   1.407       .  A
C553        H560   1.082       .  S
C554        C555   1.414       .  A
C555        C556   1.405       .  A
C555        N562   1.428       .  S
C556        C557   1.405       .  A
C556        H561   1.082       .  S
C557        C558   1.413       .  A
C558        N559   1.429       .  S
N559        O563   1.262       .  A
N559        O564   1.262       .  A
N562        O566   1.262       .  A
N562        O565   1.262       .  A
C567        C568   1.404       .  A
C567        C572   1.398       .  A
C567        H574   1.108       .  S
C568        C569   1.413   1_545  A
C569        C570   1.395       .  A
C569        N576   1.429   1_556  S
C570        C571   1.401       .  A
C570        H575   1.115   1_556  S
C571        C572   1.413   1_565  A
C572        N573   1.429       .  S
N573        O577   1.262       .  A
N573        O578   1.262       .  A
N576        O580   1.262       .  A
N576        O579   1.262   1_554  A
C581        C582   1.404       .  A
C581        C586   1.407       .  A
C581        H588   1.083       .  S
C582        C583   1.413       .  A
C583        C584   1.409       .  A
C583        N590   1.428       .  S
C584        C585   1.407       .  A
C584        H589   1.082       .  S
C585        C586   1.415       .  A
C586        N587   1.429       .  S
N587        O591   1.262       .  A
N587        O592   1.262       .  A
N590        O594   1.262       .  A
N590        O593   1.262       .  A
C595        C596   1.405       .  A
C595        C600   1.401       .  A
C595        H602   1.082       .  S
C596        C597   1.414       .  A
C597        C598   1.403       .  A
C597        N604   1.429       .  S
C598        C599   1.405       .  A
C598        H603   1.082       .  S
C599        C600   1.414       .  A
C600        N601   1.429       .  S
N601        O605   1.262       .  A
N601        O606   1.262       .  A
N604        O608   1.262       .  A
N604        O607   1.262       .  A
C609        C610   1.406       .  A
C609        C614   1.402       .  A
C609        H616   1.080       .  S
C610        C611   1.414       .  A
C611        C612   1.405       .  A
C611        N618   1.429       .  S
C612        C613   1.408       .  A
C612        H617   1.080       .  S
C613        C614   1.413       .  A
C614        N615   1.428       .  S
N615        O619   1.262       .  A
N615        O620   1.262       .  A
N618        O622   1.262       .  A
N618        O621   1.262       .  A
C623        C624   1.406       .  A
C623        C628   1.407       .  A
C623        H630   1.080       .  S
C624        C625   1.413       .  A
C625        C626   1.407       .  A
C625        N632   1.429       .  S
C626        C627   1.406       .  A
C626        H631   1.080       .  S
C627        C628   1.414       .  A
C628        N629   1.429       .  S
N629        O633   1.262       .  A
N629        O634   1.262       .  A
N632        O636   1.262       .  A
N632        O635   1.262       .  A
C637        C638   1.401       .  A
C637        C642   1.400       .  A
C637        H644   1.083       .  S
C638        C639   1.408       .  A
C639        C640   1.395       .  A
C639        N646   1.431       .  S
C640        C641   1.405       .  A
C640        H645   1.083       .  S
C641        C642   1.412       .  A
C642        N643   1.428       .  S
N643        O647   1.262       .  A
N643        O648   1.262       .  A
N646        O650   1.262       .  A
N646        O649   1.262       .  A
C651        C652   1.410       .  A
C651        C656   1.403       .  A
C651        H658   1.083       .  S
C652        C653   1.408       .  A
C653        C654   1.400       .  A
C653        N660   1.428       .  S
C654        C655   1.410       .  A
C654        H659   1.082       .  S
C655        C656   1.409       .  A
C656        N657   1.429       .  S
N657        O661   1.262       .  A
N657        O662   1.262       .  A
N660        O664   1.262       .  A
N660        O663   1.262       .  A
C665        C666   1.403       .  A
C665        C670   1.403       .  A
C665        H672   1.080       .  S
C666        C667   1.413       .  A
C667        C668   1.407       .  A
C667        N674   1.429       .  S
C668        C669   1.406       .  A
C668        H673   1.080   1_554  S
C669        C670   1.413       .  A
C670        N671   1.429       .  S
N671        O675   1.262       .  A
N671        O676   1.262       .  A
N674        O678   1.262   1_554  A
N674        O677   1.262       .  A
C679        C680   1.401       .  A
C679        C684   1.404       .  A
C679        H686   1.083       .  S
C680        C681   1.416       .  A
C681        C682   1.400       .  A
C681        N688   1.430       .  S
C682        C683   1.400       .  A
C682        H687   1.084       .  S
C683        C684   1.417       .  A
C684        N685   1.429       .  S
N685        O689   1.262       .  A
N685        O690   1.262       .  A
N688        O692   1.262       .  A
N688        O691   1.262       .  A
C693        C694   1.407       .  A
C693        C698   1.398       .  A
C693        H700   1.084       .  S
C694        C695   1.407       .  A
C695        C696   1.396       .  A
C695        N702   1.428   1_554  S
C696        C697   1.401       .  A
C696        H701   1.084       .  S
C697        C698   1.403       .  A
C698        N699   1.430       .  S
N699        O703   1.262       .  A
N699        O704   1.262       .  A
N702        O706   1.262       .  A
N702        O705   1.262       .  A
C707        C708   1.406   1_554  A
C707        C712   1.402       .  A
C707        H714   1.082       .  S
C708        C709   1.412       .  A
C709        C710   1.399       .  A
C709        N716   1.429       .  S
C710        C711   1.405       .  A
C710        H715   1.083       .  S
C711        C712   1.413   1_556  A
C712        N713   1.429       .  S
N713        O717   1.262       .  A
N713        O718   1.262       .  A
N716        O720   1.262       .  A
N716        O719   1.262       .  A
C721        C722   1.406       .  A
C721        C726   1.404       .  A
C721        H728   1.083       .  S
C722        C723   1.411       .  A
C723        C724   1.404       .  A
C723        N730   1.428   1_556  S
C724        C725   1.407       .  A
C724        H729   1.083       .  S
C725        C726   1.412       .  A
C726        N727   1.429       .  S
N727        O731   1.262       .  A
N727        O732   1.261       .  A
N730        O734   1.262       .  A
N730        O733   1.262       .  A
C735        C736   1.401       .  A
C735        C740   1.395       .  A
C735        H742   1.083       .  S
C736        C737   1.409   1_455  A
C737        C738   1.394       .  A
C737        N744   1.429       .  S
C738        C739   1.402       .  A
C738        H743   1.083       .  S
C739        C740   1.408   1_655  A
C740        N741   1.427       .  S
N741        O745   1.261       .  A
N741        O746   1.262       .  A
N744        O748   1.262       .  A
N744        O747   1.262       .  A
C749        C750   1.409       .  A
C749        C754   1.399       .  A
C749        H756   1.083       .  S
C750        C751   1.406       .  A
C751        C752   1.397       .  A
C751        N758   1.428       .  S
C752        C753   1.410       .  A
C752        H757   1.082       .  S
C753        C754   1.408       .  A
C754        N755   1.428       .  S
N755        O759   1.262       .  A
N755        O760   1.262       .  A
N758        O762   1.262       .  A
N758        O761   1.262       .  A
C763        C764   1.404       .  A
C763        C768   1.400       .  A
C763        H770   1.083       .  S
C764        C765   1.411       .  A
C765        C766   1.401   1_655  A
C765        N772   1.430   1_655  S
C766        C767   1.405       .  A
C766        H771   1.083       .  S
C767        C768   1.409   1_455  A
C768        N769   1.428       .  S
N769        O773   1.262       .  A
N769        O774   1.261       .  A
N772        O776   1.262       .  A
N772        O775   1.262       .  A
C777        C778   1.403       .  A
C777        C782   1.398       .  A
C777        H784   1.083       .  S
C778        C779   1.412       .  A
C779        C780   1.403       .  A
C779        N786   1.429       .  S
C780        C781   1.406       .  A
C780        H785   1.082       .  S
C781        C782   1.410       .  A
C782        N783   1.429       .  S
N783        O787   1.262       .  A
N783        O788   1.262       .  A
N786        O790   1.262       .  A
N786        O789   1.262       .  A
C791        C792   1.401       .  A
C791        C796   1.400       .  A
C791        H798   1.082       .  S
C792        C793   1.418   1_565  A
C793        C794   1.400       .  A
C793        N800   1.429       .  S
C794        C795   1.400       .  A
C794        H799   1.082       .  S
C795        C796   1.416   1_545  A
C796        N797   1.429       .  S
N797        O801   1.262       .  A
N797        O802   1.262       .  A
N800        O804   1.262       .  A
N800        O803   1.262       .  A
C805        C806   1.405       .  A
C805        C810   1.393   1_565  A
C805        H812   1.083       .  S
C806        C807   1.410       .  A
C807        C808   1.398   1_565  A
C807        N814   1.428       .  S
C808        C809   1.401       .  A
C808        H813   1.083       .  S
C809        C810   1.405       .  A
C810        N811   1.430       .  S
N811        O815   1.262       .  A
N811        O816   1.262       .  A
N814        O818   1.262       .  A
N814        O817   1.262       .  A
C819        C820   1.404       .  A
C819        C824   1.394       .  A
C819        H826   1.082       .  S
C820        C821   1.409       .  A
C821        C822   1.396       .  A
C821        N828   1.429       .  S
C822        C823   1.406       .  A
C822        H827   1.082       .  S
C823        C824   1.410       .  A
C824        N825   1.429       .  S
N825        O829   1.262       .  A
N825        O830   1.262       .  A
N828        O832   1.262       .  A
N828        O831   1.262       .  A
C833        C834   1.402       .  A
C833        C838   1.402       .  A
C833        H840   1.080       .  S
C834        C835   1.413       .  A
C835        C836   1.406       .  A
C835        N842   1.429       .  S
C836        C837   1.405       .  A
C836        H841   1.080       .  S
C837        C838   1.413       .  A
C838        N839   1.429       .  S
N839        O843   1.262       .  A
N839        O844   1.262       .  A
N842        O846   1.262       .  A
N842        O845   1.262       .  A
C847        C848   1.403       .  A
C847        C852   1.395       .  A
C847        H854   1.081       .  S
C848        C849   1.412   1_545  A
C849        C850   1.398       .  A
C849        N856   1.429       .  S
C850        C851   1.405       .  A
C850        H855   1.081       .  S
C851        C852   1.412   1_565  A
C852        N853   1.429       .  S
N853        O857   1.262       .  A
N853        O858   1.262       .  A
N856        O860   1.262       .  A
N856        O859   1.262       .  A
C861        C862   1.400       .  A
C861        C866   1.402       .  A
C861        H868   1.083       .  S
C862        C863   1.421   1_565  A
C863        C864   1.407       .  A
C863        N870   1.429       .  S
C864        C865   1.403       .  A
C864        H869   1.082       .  S
C865        C866   1.417   1_545  A
C866        N867   1.428       .  S
N867        O871   1.262       .  A
N867        O872   1.261       .  A
N870        O874   1.262       .  A
N870        O873   1.262       .  A
C875        C876   1.396   1_565  A
C875        C880   1.400       .  A
C875        H882   1.083   1_565  S
C876        C877   1.408       .  A
C877        C878   1.395   1_545  A
C877        N884   1.428       .  S
C878        C879   1.398       .  A
C878        H883   1.083       .  S
C879        C880   1.417       .  A
C880        N881   1.430       .  S
N881        O885   1.262       .  A
N881        O886   1.261       .  A
N884        O888   1.261       .  A
N884        O887   1.262       .  A
C889        C890   1.403       .  A
C889        C894   1.405       .  A
C889        H896   1.081       .  S
C890        C891   1.413       .  A
C891        C892   1.406       .  A
C891        N898   1.429       .  S
C892        C893   1.405       .  A
C892        H897   1.081       .  S
C893        C894   1.415       .  A
C894        N895   1.429       .  S
N895        O899   1.262       .  A
N895        O900   1.262       .  A
N898        O902   1.262       .  A
N898        O901   1.262       .  A
C903        C904   1.409       .  A
C903        C908   1.402       .  A
C903        H910   1.082   1_554  S
C904        C905   1.407       .  A
C905        C906   1.399       .  A
C905        N912   1.429       .  S
C906        C907   1.410       .  A
C906        H911   1.082       .  S
C907        C908   1.409       .  A
C908        N909   1.428       .  S
N909        O913   1.262       .  A
N909        O914   1.262       .  A
N912        O916   1.262       .  A
N912        O915   1.262       .  A
C917        C918   1.405       .  A
C917        C922   1.397       .  A
C917        H924   1.079       .  S
C918        C919   1.410       .  A
C919        C920   1.397       .  A
C919        N926   1.429       .  S
C920        C921   1.404       .  A
C920        H925   1.079       .  S
C921        C922   1.409       .  A
C922        N923   1.429       .  S
N923        O927   1.262       .  A
N923        O928   1.262       .  A
N926        O930   1.262       .  A
N926        O929   1.262       .  A
C931        C932   1.401       .  A
C931        C936   1.395   1_655  A
C931        H938   1.082       .  S
C932        C933   1.409       .  A
C933        C934   1.396       .  A
C933        N940   1.429       .  S
C934        C935   1.401       .  A
C934        H939   1.082       .  S
C935        C936   1.411   1_655  A
C936        N937   1.430       .  S
N937        O941   1.262       .  A
N937        O942   1.262       .  A
N940        O944   1.262       .  A
N940        O943   1.262       .  A
C945        C946   1.404       .  A
C945        C950   1.398       .  A
C945        H952   1.083       .  S
C946        C947   1.412       .  A
C947        C948   1.398       .  A
C947        N954   1.429       .  S
C948        C949   1.405       .  A
C948        H953   1.083       .  S
C949        C950   1.412       .  A
C950        N951   1.429       .  S
N951        O955   1.262       .  A
N951        O956   1.262       .  A
N954        O958   1.262       .  A
N954        O957   1.262       .  A
C959        C960   1.408       .  A
C959        C964   1.404       .  A
C959        H966   1.083       .  S
C960        C961   1.411       .  A
C961        C962   1.400   1_655  A
C961        N968   1.428   1_655  S
C962        C963   1.404       .  A
C962        H967   1.084       .  S
C963        C964   1.410   1_455  A
C964        N965   1.429       .  S
N965        O969   1.262       .  A
N965        O970   1.262       .  A
N968        O972   1.262       .  A
N968        O971   1.262       .  A
C973        C974   1.401       .  A
C973        C978   1.395       .  A
C973        H980   1.085       .  S
C974        C975   1.407       .  A
C975        C976   1.395       .  A
C975        N982   1.428       .  S
C976        C977   1.402       .  A
C976        H981   1.085       .  S
C977        C978   1.412       .  A
C978        N979   1.430       .  S
N979        O983   1.262       .  A
N979        O984   1.262       .  A
N982        O986   1.262       .  A
N982        O985   1.262       .  A
C987        C988   1.398       .  A
C987        C992   1.398       .  A
C987        H994   1.082       .  S
C988        C989   1.420       .  A
C989        C990   1.405       .  A
C989        N996   1.430       .  S
C990        C991   1.403       .  A
C990        H995   1.081       .  S
C991        C992   1.418       .  A
C992        N993   1.429       .  S
N993        O997   1.262       .  A
N993        O998   1.262       .  A
N996       O1000   1.262       .  A
N996        O999   1.262       .  A
C1001      C1002   1.402       .  A
C1001      C1006   1.394       .  A
C1001      H1008   1.083       .  S
C1002      C1003   1.409       .  A
C1003      C1004   1.400       .  A
C1003      N1010   1.429       .  S
C1004      C1005   1.403       .  A
C1004      H1009   1.083       .  S
C1005      C1006   1.410       .  A
C1006      N1007   1.430       .  S
N1007      O1011   1.262       .  A
N1007      O1012   1.262       .  A
N1010      O1014   1.262       .  A
N1010      O1013   1.262       .  A
C1015      C1016   1.413       .  A
C1015      C1020   1.405       .  A
C1015      H1022   1.084       .  S
C1016      C1017   1.409       .  A
C1017      C1018   1.397       .  A
C1017      N1024   1.429       .  S
C1018      C1019   1.407   1_554  A
C1018      H1023   1.085   1_554  S
C1019      C1020   1.407   1_556  A
C1020      N1021   1.429       .  S
N1021      O1025   1.262       .  A
N1021      O1026   1.262       .  A
N1024      O1028   1.262       .  A
N1024      O1027   1.262       .  A
C1029      C1030   1.405       .  A
C1029      C1034   1.406       .  A
C1029      H1036   1.081       .  S
C1030      C1031   1.414       .  A
C1031      C1032   1.405       .  A
C1031      N1038   1.429       .  S
C1032      C1033   1.404       .  A
C1032      H1037   1.081       .  S
C1033      C1034   1.415       .  A
C1034      N1035   1.429       .  S
N1035      O1039   1.262       .  A
N1035      O1040   1.262       .  A
N1038      O1042   1.262       .  A
N1038      O1041   1.262       .  A
C1043      C1044   1.401       .  A
C1043      C1048   1.399       .  A
C1043      H1050   1.082       .  S
C1044      C1045   1.399       .  A
C1045      C1046   1.392       .  A
C1045      N1052   1.429       .  S
C1046      C1047   1.407       .  A
C1046      H1051   1.081       .  S
C1047      C1048   1.410       .  A
C1048      N1049   1.428       .  S
N1049      O1053   1.262       .  A
N1049      O1054   1.262       .  A
N1052      O1056   1.262       .  A
N1052      O1055   1.262       .  A
C1057      C1058   1.403       .  A
C1057      C1062   1.399       .  A
C1057      H1064   1.080       .  S
C1058      C1059   1.413       .  A
C1059      C1060   1.399       .  A
C1059      N1066   1.429       .  S
C1060      C1061   1.403       .  A
C1060      H1065   1.081       .  S
C1061      C1062   1.414       .  A
C1062      N1063   1.429       .  S
N1063      O1067   1.262       .  A
N1063      O1068   1.262       .  A
N1066      O1070   1.262       .  A
N1066      O1069   1.262       .  A
C1071      C1072   1.411       .  A
C1071      C1076   1.403       .  A
C1071      H1078   1.081       .  S
C1072      C1073   1.408       .  A
C1073      C1074   1.400       .  A
C1073      N1080   1.428       .  S
C1074      C1075   1.409       .  A
C1074      H1079   1.082       .  S
C1075      C1076   1.408       .  A
C1076      N1077   1.429       .  S
N1077      O1081   1.262       .  A
N1077      O1082   1.262       .  A
N1080      O1084   1.262       .  A
N1080      O1083   1.262       .  A
C1085      C1086   1.402       .  A
C1085      C1090   1.387       .  A
C1085      H1092   1.077       .  S
C1086      C1087   1.409       .  A
C1087      C1088   1.399       .  A
C1087      N1094   1.429       .  S
C1088      C1089   1.404       .  A
C1088      H1093   1.071       .  S
C1089      C1090   1.405       .  A
C1090      N1091   1.429       .  S
N1091      O1095   1.262       .  A
N1091      O1096   1.262       .  A
N1094      O1098   1.262       .  A
N1094      O1097   1.262       .  A
C1099      C1100   1.410       .  A
C1099      C1104   1.404       .  A
C1099      H1106   1.082       .  S
C1100      C1101   1.411       .  A
C1101      C1102   1.403       .  A
C1101      N1108   1.429       .  S
C1102      C1103   1.409       .  A
C1102      H1107   1.082       .  S
C1103      C1104   1.408       .  A
C1104      N1105   1.428       .  S
N1105      O1109   1.262       .  A
N1105      O1110   1.262       .  A
N1108      O1112   1.262       .  A
N1108      O1111   1.262       .  A
C1113      C1114   1.405       .  A
C1113      C1118   1.406       .  A
C1113      H1120   1.082       .  S
C1114      C1115   1.415       .  A
C1115      C1116   1.407       .  A
C1115      N1122   1.429       .  S
C1116      C1117   1.405       .  A
C1116      H1121   1.082       .  S
C1117      C1118   1.412       .  A
C1118      N1119   1.428       .  S
N1119      O1123   1.262       .  A
N1119      O1124   1.262       .  A
N1122      O1126   1.262       .  A
N1122      O1125   1.262       .  A
C1127      C1128   1.401       .  A
C1127      C1132   1.392   1_545  A
C1127      H1134   1.085   1_545  S
C1128      C1129   1.410       .  A
C1129      C1130   1.396       .  A
C1129      N1136   1.429       .  S
C1130      C1131   1.401       .  A
C1130      H1135   1.084       .  S
C1131      C1132   1.410   1_545  A
C1132      N1133   1.430       .  S
N1133      O1137   1.262       .  A
N1133      O1138   1.262       .  A
N1136      O1140   1.262       .  A
N1136      O1139   1.262       .  A
C1141      C1142   1.406       .  A
C1141      C1146   1.396       .  A
C1141      H1148   1.082       .  S
C1142      C1143   1.405       .  A
C1143      C1144   1.401       .  A
C1143      N1150   1.428       .  S
C1144      C1145   1.409       .  A
C1144      H1149   1.082       .  S
C1145      C1146   1.406       .  A
C1146      N1147   1.429       .  S
N1147      O1151   1.261       .  A
N1147      O1152   1.262       .  A
N1150      O1154   1.262       .  A
N1150      O1153   1.262       .  A
C1155      C1156   1.402       .  A
C1155      C1160   1.392       .  A
C1155      H1162   1.085       .  S
C1156      C1157   1.414       .  A
C1157      C1158   1.399       .  A
C1157      N1164   1.429       .  S
C1158      C1159   1.404       .  A
C1158      H1163   1.085       .  S
C1159      C1160   1.411       .  A
C1160      N1161   1.429       .  S
N1161      O1165   1.262       .  A
N1161      O1166   1.262       .  A
N1164      O1168   1.262       .  A
N1164      O1167   1.262       .  A
C1169      C1170   1.408       .  A
C1169      C1174   1.395       .  A
C1169      H1176   1.085   1_565  S
C1170      C1171   1.411       .  A
C1171      C1172   1.398       .  A
C1171      N1178   1.429       .  S
C1172      C1173   1.400       .  A
C1172      H1177   1.083       .  S
C1173      C1174   1.403       .  A
C1174      N1175   1.430       .  S
N1175      O1179   1.262   1_565  A
N1175      O1180   1.262       .  A
N1178      O1182   1.262       .  A
N1178      O1181   1.262   1_556  A
C1183      C1184   1.405       .  A
C1183      C1188   1.404   1_565  A
C1183      H1190   1.083       .  S
C1184      C1185   1.415       .  A
C1185      C1186   1.401       .  A
C1185      N1192   1.429       .  S
C1186      C1187   1.402   1_565  A
C1186      H1191   1.083       .  S
C1187      C1188   1.411       .  A
C1188      N1189   1.429       .  S
N1189      O1193   1.262       .  A
N1189      O1194   1.262       .  A
N1192      O1196   1.262       .  A
N1192      O1195   1.262       .  A
C1197      C1198   1.400       .  A
C1197      C1202   1.400       .  A
C1197      H1204   1.082       .  S
C1198      C1199   1.419       .  A
C1199      C1200   1.401       .  A
C1199      N1206   1.429   1_554  S
C1200      C1201   1.401       .  A
C1200      H1205   1.082       .  S
C1201      C1202   1.418       .  A
C1202      N1203   1.428       .  S
N1203      O1207   1.262       .  A
N1203      O1208   1.262       .  A
N1206      O1210   1.262       .  A
N1206      O1209   1.262       .  A
C1211      C1212   1.407       .  A
C1211      C1216   1.396       .  A
C1211      H1218   1.080       .  S
C1212      C1213   1.413       .  A
C1213      C1214   1.403       .  A
C1213      N1220   1.429       .  S
C1214      C1215   1.401       .  A
C1214      H1219   1.076       .  S
C1215      C1216   1.404       .  A
C1216      N1217   1.430   1_654  S
N1217      O1221   1.262       .  A
N1217      O1222   1.262   1_556  A
N1220      O1224   1.262       .  A
N1220      O1223   1.262       .  A
C1225      C1226   1.400   1_455  A
C1225      C1230   1.401   1_455  A
C1225      H1232   1.082       .  S
C1226      C1227   1.418       .  A
C1227      C1228   1.401       .  A
C1227      N1234   1.428       .  S
C1228      C1229   1.399       .  A
C1228      H1233   1.082       .  S
C1229      C1230   1.417       .  A
C1230      N1231   1.429   1_655  S
N1231      O1235   1.262       .  A
N1231      O1236   1.261       .  A
N1234      O1238   1.261       .  A
N1234      O1237   1.262       .  A
C1239      C1240   1.404       .  A
C1239      C1244   1.399   1_455  A
C1239      H1246   1.082       .  S
C1240      C1241   1.413       .  A
C1241      C1242   1.395   1_455  A
C1241      N1248   1.429       .  S
C1242      C1243   1.399       .  A
C1242      H1247   1.083       .  S
C1243      C1244   1.408       .  A
C1244      N1245   1.429       .  S
N1245      O1249   1.262       .  A
N1245      O1250   1.262       .  A
N1248      O1252   1.262       .  A
N1248      O1251   1.262       .  A
C1253      C1254   1.404       .  A
C1253      C1258   1.394       .  A
C1253      H1260   1.081       .  S
C1254      C1255   1.413       .  A
C1255      C1256   1.397       .  A
C1255      N1262   1.429       .  S
C1256      C1257   1.404       .  A
C1256      H1261   1.081       .  S
C1257      C1258   1.411       .  A
C1258      N1259   1.429       .  S
N1259      O1263   1.262       .  A
N1259      O1264   1.262       .  A
N1262      O1266   1.262       .  A
N1262      O1265   1.262       .  A
C1267      C1268   1.403       .  A
C1267      C1272   1.403       .  A
C1267      H1274   1.081       .  S
C1268      C1269   1.412       .  A
C1269      C1270   1.404       .  A
C1269      N1276   1.428       .  S
C1270      C1271   1.404       .  A
C1270      H1275   1.081       .  S
C1271      C1272   1.415       .  A
C1272      N1273   1.430       .  S
N1273      O1277   1.262       .  A
N1273      O1278   1.262       .  A
N1276      O1280   1.262       .  A
N1276      O1279   1.262       .  A
C1281      C1282   1.399       .  A
C1281      C1286   1.398       .  A
C1281      H1288   1.082       .  S
C1282      C1283   1.416       .  A
C1283      C1284   1.399       .  A
C1283      N1290   1.429       .  S
C1284      C1285   1.399       .  A
C1284      H1289   1.082       .  S
C1285      C1286   1.414       .  A
C1286      N1287   1.429       .  S
N1287      O1291   1.262       .  A
N1287      O1292   1.262       .  A
N1290      O1294   1.262       .  A
N1290      O1293   1.262       .  A
C1295      C1296   1.396       .  A
C1295      C1300   1.395       .  A
C1295      H1302   1.082       .  S
C1296      C1297   1.412       .  A
C1297      C1298   1.398       .  A
C1297      N1304   1.430       .  S
C1298      C1299   1.398       .  A
C1298      H1303   1.082       .  S
C1299      C1300   1.411       .  A
C1300      N1301   1.429       .  S
N1301      O1305   1.262       .  A
N1301      O1306   1.262       .  A
N1304      O1308   1.262   1_455  A
N1304      O1307   1.262       .  A
C1309      C1310   1.405   1_455  A
C1309      C1314   1.399       .  A
C1309      H1316   1.082       .  S
C1310      C1311   1.412       .  A
C1311      C1312   1.399       .  A
C1311      N1318   1.428       .  S
C1312      C1313   1.404       .  A
C1312      H1317   1.082       .  S
C1313      C1314   1.413   1_655  A
C1314      N1315   1.429   1_556  S
N1315      O1319   1.262       .  A
N1315      O1320   1.262   1_554  A
N1318      O1322   1.262       .  A
N1318      O1321   1.262       .  A
C1323      C1324   1.400       .  A
C1323      C1328   1.399       .  A
C1323      H1330   1.083       .  S
C1324      C1325   1.420   1_655  A
C1325      C1326   1.404       .  A
C1325      N1332   1.430       .  S
C1326      C1327   1.401       .  A
C1326      H1331   1.082       .  S
C1327      C1328   1.418   1_455  A
C1328      N1329   1.429       .  S
N1329      O1333   1.262       .  A
N1329      O1334   1.262       .  A
N1332      O1336   1.262       .  A
N1332      O1335   1.262       .  A
C1337      C1338   1.402       .  A
C1337      C1342   1.401   1_655  A
C1337      H1344   1.086       .  S
C1338      C1339   1.402       .  A
C1339      C1340   1.389   1_655  A
C1339      N1346   1.428       .  S
C1340      C1341   1.404       .  A
C1340      H1345   1.085       .  S
C1341      C1342   1.413       .  A
C1342      N1343   1.428       .  S
N1343      O1347   1.262       .  A
N1343      O1348   1.262       .  A
N1346      O1350   1.262       .  A
N1346      O1349   1.261       .  A
C1351      C1352   1.408       .  A
C1351      C1356   1.406       .  A
C1351      H1358   1.082       .  S
C1352      C1353   1.412   1_554  A
C1353      C1354   1.405   1_556  A
C1353      N1360   1.427       .  S
C1354      C1355   1.406       .  A
C1354      H1359   1.082       .  S
C1355      C1356   1.412       .  A
C1356      N1357   1.429       .  S
N1357      O1361   1.261       .  A
N1357      O1362   1.262       .  A
N1360      O1364   1.262       .  A
N1360      O1363   1.262       .  A
C1365      C1366   1.410       .  A
C1365      C1370   1.399       .  A
C1365      H1372   1.082       .  S
C1366      C1367   1.407       .  A
C1367      C1368   1.401       .  A
C1367      N1374   1.428       .  S
C1368      C1369   1.410       .  A
C1368      H1373   1.081       .  S
C1369      C1370   1.408       .  A
C1370      N1371   1.428       .  S
N1371      O1375   1.262       .  A
N1371      O1376   1.262       .  A
N1374      O1378   1.262       .  A
N1374      O1377   1.262       .  A
C1379      C1380   1.404       .  A
C1379      C1384   1.393   1_545  A
C1379      H1386   1.082   1_545  S
C1380      C1381   1.410       .  A
C1381      C1382   1.393       .  A
C1381      N1388   1.429       .  S
C1382      C1383   1.398       .  A
C1382      H1387   1.082       .  S
C1383      C1384   1.406   1_545  A
C1384      N1385   1.430       .  S
N1385      O1389   1.262   1_554  A
N1385      O1390   1.262       .  A
N1388      O1392   1.262       .  A
N1388      O1391   1.262       .  A
C1393      C1394   1.403       .  A
C1393      C1398   1.399       .  A
C1393      H1400   1.081       .  S
C1394      C1395   1.413       .  A
C1395      C1396   1.396       .  A
C1395      N1402   1.429       .  S
C1396      C1397   1.403       .  A
C1396      H1401   1.082       .  S
C1397      C1398   1.415       .  A
C1398      N1399   1.429       .  S
N1399      O1403   1.262       .  A
N1399      O1404   1.262       .  A
N1402      O1406   1.262       .  A
N1402      O1405   1.262       .  A
C1407      C1408   1.410       .  A
C1407      C1412   1.400       .  A
C1407      H1414   1.081       .  S
C1408      C1409   1.409       .  A
C1409      C1410   1.404       .  A
C1409      N1416   1.428       .  S
C1410      C1411   1.410       .  A
C1410      H1415   1.081       .  S
C1411      C1412   1.409       .  A
C1412      N1413   1.428       .  S
N1413      O1417   1.262       .  A
N1413      O1418   1.262       .  A
N1416      O1420   1.262       .  A
N1416      O1419   1.262       .  A
C1421      C1422   1.400       .  A
C1421      C1426   1.392       .  A
C1421      H1428   1.085   1_565  S
C1422      C1423   1.409       .  A
C1423      C1424   1.398       .  A
C1423      N1430   1.428       .  S
C1424      C1425   1.402       .  A
C1424      H1429   1.085       .  S
C1425      C1426   1.411       .  A
C1426      N1427   1.430       .  S
N1427      O1431   1.262   1_565  A
N1427      O1432   1.262   1_565  A
N1430      O1434   1.262       .  A
N1430      O1433   1.261       .  A
C1435      C1436   1.411       .  A
C1435      C1440   1.404       .  A
C1435      H1442   1.082       .  S
C1436      C1437   1.409       .  A
C1437      C1438   1.401       .  A
C1437      N1444   1.428       .  S
C1438      C1439   1.410       .  A
C1438      H1443   1.083       .  S
C1439      C1440   1.409       .  A
C1440      N1441   1.429       .  S
N1441      O1445   1.262       .  A
N1441      O1446   1.262       .  A
N1444      O1448   1.262       .  A
N1444      O1447   1.262       .  A
C1449      C1450   1.404       .  A
C1449      C1454   1.405   1_565  A
C1449      H1456   1.081       .  S
C1450      C1451   1.415       .  A
C1451      C1452   1.403       .  A
C1451      N1458   1.429       .  S
C1452      C1453   1.403   1_565  A
C1452      H1457   1.081       .  S
C1453      C1454   1.412       .  A
C1454      N1455   1.428       .  S
N1455      O1459   1.262       .  A
N1455      O1460   1.262       .  A
N1458      O1462   1.262       .  A
N1458      O1461   1.262       .  A
C1463      C1464   1.404       .  A
C1463      C1468   1.396       .  A
C1463      H1470   1.080       .  S
C1464      C1465   1.412       .  A
C1465      C1466   1.401       .  A
C1465      N1472   1.429       .  S
C1466      C1467   1.406       .  A
C1466      H1471   1.079       .  S
C1467      C1468   1.412       .  A
C1468      N1469   1.428       .  S
N1469      O1473   1.262       .  A
N1469      O1474   1.262       .  A
N1472      O1476   1.262       .  A
N1472      O1475   1.262       .  A
