geometry optimzed in LAMMPS
_audit_creation_date              2020-12-01 
_audit_creation_method            'lammps2cif' 
_symmetry_space_group_name_H-M    'P1' 
_symmetry_Int_Tables_number       1 
_symmetry_cell_setting            triclinic 
loop_ 
_symmetry_equiv_pos_as_xyz 
  x,y,z 
_cell_length_a                    76.25039806 
_cell_length_b                    76.4897063141024 
_cell_length_c                    32.7601540754219 
_cell_angle_alpha                 90.0596256009886 
_cell_angle_beta                  89.89665895674443 
_cell_angle_gamma                 120.1419270262219 
loop_ 
_atom_site_label 
_atom_site_type_symbol 
_atom_site_fract_x 
_atom_site_fract_y 
_atom_site_fract_z 
_atom_site_charge 
O1          O  0.71795944  0.89743915  0.38389166    -0.55500
C2          C  0.69689865  0.90957406  0.49616187     0.77200
O3          O  0.75167729  0.91251716  0.49996068    -0.56600
C4          C  0.73473459  0.89893595  0.37340211     0.77100
C5          C  0.75234203  0.95952751  0.41901209     0.79500
Cd6        Cd  0.73175789  0.91788353  0.44626106     1.37500
O7          O  0.69487712  0.90520651  0.45837379    -0.55500
O8          O  0.73385212  0.94716416  0.41160888    -0.54300
C9          C  0.74150182  0.89334044  0.49633153     0.79500
O10         O  0.76137752  0.95307357  0.44170062    -0.56700
O11         O  0.71493790  0.91903353  0.50937448    -0.55100
O12         O  0.74993023  0.91015877  0.39535711    -0.55100
O13         O  0.72813656  0.88644500  0.46874579    -0.54300
O14         O  0.60475880  0.83760790  0.21139616    -0.55500
C15         C  0.62677145  0.87389210  0.10312272     0.77200
O16         O  0.57378192  0.82023745  0.09135866    -0.56600
C17         C  0.58849420  0.82125631  0.21956705     0.77100
C18         C  0.57199090  0.86597374  0.17575877     0.79500
Cd19       Cd  0.59174047  0.84460203  0.14853009     1.37500
O20         O  0.62822599  0.86889315  0.13941814    -0.55500
O21         O  0.59044941  0.87184654  0.18266302    -0.54300
C22         C  0.58655572  0.81411389  0.09210474     0.79500
O23         O  0.56215776  0.84991672  0.15478244    -0.56700
O24         O  0.60890128  0.86663445  0.08942121    -0.55100
O25         O  0.57360945  0.81652631  0.19606123    -0.55100
O26         O  0.59988255  0.82131490  0.11971543    -0.54300
O27         O  0.69760059  0.79062744  0.20510159    -0.55500
C28         C  0.73867038  0.83944977  0.12164539     0.77200
O29         O  0.75093132  0.84124034  0.24862969    -0.56600
C30         C  0.70041774  0.78719927  0.24185732     0.77100
C31         C  0.75385865  0.79531882  0.16565798     0.79500
Cd32       Cd  0.73353077  0.81613980  0.19330309     1.37500
O33         O  0.72180697  0.82349715  0.12886296    -0.55500
O34         O  0.73519522  0.78879468  0.15941853    -0.54300
C35         C  0.73777252  0.84688877  0.24859535     0.79500
O36         O  0.76329453  0.81129082  0.18706973    -0.56700
O37         O  0.75282733  0.84388064  0.14691839    -0.55100
O38         O  0.71864836  0.79581617  0.25406392    -0.55100
O39         O  0.72383285  0.83880720  0.22221450    -0.54300
O40         O  0.63363640  0.75703993  0.38810570    -0.55500
C41         C  0.59229014  0.76318931  0.46843223     0.77200
O42         O  0.57792981  0.74847740  0.34166440    -0.56600
C43         C  0.63187537  0.75058540  0.35170224     0.77100
C44         C  0.57682950  0.70320380  0.42885892     0.79500
Cd45       Cd  0.59685577  0.74368333  0.39828887     1.37500
O46         O  0.60923106  0.76461756  0.45974558    -0.55500
O47         O  0.59529671  0.71576234  0.43601773    -0.54300
C48         C  0.58891159  0.76767288  0.34339122     0.79500
O49         O  0.56756393  0.70893492  0.40501184    -0.56700
O50         O  0.57748755  0.75183801  0.44568705    -0.55100
O51         O  0.61391447  0.73940648  0.33894966    -0.55100
O52         O  0.60226931  0.77473634  0.37097507    -0.54300
O53         O  0.76556613  0.15427379  0.05122779    -0.55500
C54         C  0.74822385  0.11947934  0.16247397     0.77200
O55         O  0.75419051  0.17468994  0.16904455    -0.56600
C56         C  0.76699816  0.17117449  0.04284310     0.77100
C57         C  0.70438362  0.13146151  0.08846813     0.79500
Cd58       Cd  0.74575165  0.14932541  0.11419016     1.37500
O59         O  0.75438252  0.12279977  0.12564834    -0.55500
O60         O  0.71503770  0.12323475  0.08286904    -0.54300
C61         C  0.77281136  0.17952726  0.16950988     0.79500
O62         O  0.71263543  0.14812294  0.10778405    -0.56700
O63         O  0.73919573  0.12857179  0.17504475    -0.55100
O64         O  0.75749423  0.17680520  0.06605436    -0.55100
O65         O  0.77822654  0.17093869  0.14353422    -0.54300
O66         O  0.82140075  0.10138312  0.37577050    -0.55500
C67         C  0.78158332  0.08453472  0.27087769     0.77200
O68         O  0.83631153  0.08637928  0.25764800    -0.56600
C69         C  0.83747097  0.10068498  0.38239006     0.77100
C70         C  0.79164471  0.03882755  0.34299740     0.79500
Cd71       Cd  0.81181785  0.08013135  0.31426960     1.37500
O72         O  0.78689744  0.09174859  0.30667522    -0.55500
O73         O  0.78570736  0.05111763  0.35213872    -0.54300
C74         C  0.84158963  0.10501136  0.25486204     0.79500
O75         O  0.80668288  0.04530361  0.31877697    -0.56700
O76         O  0.78867855  0.07371028  0.25790449    -0.55100
O77         O  0.84088288  0.08971413  0.35854652    -0.55100
O78         O  0.83334420  0.11139868  0.27960317    -0.54300
O79         O  0.89874767  0.17584062  0.12347170    -0.55500
C80         C  0.91696136  0.21225968  0.01594369     0.77200
O81         O  0.95469717  0.18625914  0.06867061    -0.56600
C82         C  0.89766005  0.15918845  0.13266919     0.77100
C83         C  0.89469994  0.15203662  0.00552000     0.79500
Cd84       Cd  0.92025408  0.18226620  0.06276532     1.37500
O85         O  0.91070446  0.20843928  0.05263235    -0.55500
O86         O  0.88888649  0.16037529  0.03121312    -0.54300
C87         C  0.96153636  0.20192421  0.09105647     0.79500
O88         O  0.91341684  0.15723004  0.00664665    -0.56700
O89         O  0.92624531  0.20352841  0.00282282    -0.55100
O90         O  0.90807946  0.15406369  0.11090874    -0.55100
O91         O  0.94943455  0.20826547  0.09891799    -0.54300
O92         O  0.87889694  0.24097335  0.37298004    -0.55500
C93         C  0.82916521  0.23053900  0.29393151     0.77200
O94         O  0.82815376  0.24397385  0.41885265    -0.56600
C95         C  0.88318311  0.24737601  0.40951012     0.77100
C96         C  0.87262316  0.29176307  0.33560108     0.79500
Cd97       Cd  0.85312458  0.25085037  0.36389485     1.37500
O98         O  0.84522544  0.23002228  0.30181250    -0.55500
O99         O  0.87881594  0.27967044  0.32660534    -0.54300
C100        C  0.82256769  0.22523494  0.42040900     0.79500
O101        O  0.85756318  0.28521766  0.35978457    -0.56700
O102        O  0.82511723  0.24118279  0.31741649    -0.55100
O103        O  0.87488261  0.25701039  0.42303110    -0.55100
O104        O  0.83088093  0.21904474  0.39536793    -0.54300
O105        O  0.43468928  0.94186751  0.47173110    -0.55500
C106        C  0.41228817  0.95727923  0.07982124     0.77200
O107        O  0.37744920  0.89612745  0.01598224    -0.56600
C108        C  0.43532501  0.92606949  0.46214238     0.77100
C109        C  0.43716930  0.92264871  0.08777393     0.79500
Cd110      Cd  0.41147766  0.92623979  0.02938576     1.37500
O111        O  0.41946915  0.96126549  0.04374541    -0.55500
O112        O  0.44296176  0.93642538  0.06119018    -0.54300
C113        C  0.37186444  0.90580634  0.49284669     0.79500
O114        O  0.41853383  0.90878653  0.08655327    -0.56700
O115        O  0.40294772  0.93880989  0.09017557    -0.55100
O116        O  0.42410351  0.91027567  0.48267616    -0.55100
O117        O  0.38430632  0.92449159  0.48822638    -0.54300
O118        O  0.45225664  0.02340401  0.22433692    -0.55500
C119        C  0.50386992  0.06667441  0.29471494     0.77200
O120        O  0.50089833  0.07911032  0.17318494    -0.56600
C121        C  0.44481801  0.02456626  0.19043323     0.77100
C122        C  0.45986613  0.08354080  0.26178868     0.79500
Cd123      Cd  0.47670366  0.06021755  0.22917119     1.37500
O124        O  0.48668901  0.05054497  0.29264267    -0.55500
O125        O  0.45915997  0.06875084  0.28053914    -0.54300
C126        C  0.50553177  0.06542060  0.16785742     0.79500
O127        O  0.46786807  0.08738941  0.22644535    -0.56700
O128        O  0.50819808  0.07943180  0.26634971    -0.55100
O129        O  0.45040143  0.04224494  0.17779178    -0.55100
O130        O  0.49702058  0.05015803  0.19100293    -0.54300
O131        O  0.51118378  0.94595926  0.21712747    -0.55500
C132        C  0.55085228  0.96938483  0.32137867     0.77200
O133        O  0.49808957  0.91651456  0.33798438    -0.56600
C134        C  0.49507946  0.92923596  0.21024178     0.77100
C135        C  0.53867706  0.91165479  0.24966816     0.79500
Cd136      Cd  0.52049416  0.93420232  0.27876987     1.37500
O137        O  0.54531503  0.97087155  0.28557441    -0.55500
O138        O  0.54542135  0.92999312  0.24017842    -0.54300
C139        C  0.49075611  0.92824217  0.33839824     0.79500
O140        O  0.52411617  0.90397415  0.27506927    -0.56700
O141        O  0.54381290  0.95159654  0.33495980    -0.55100
O142        O  0.49158533  0.91479399  0.23393971    -0.55100
O143        O  0.49672136  0.94147492  0.31063920    -0.54300
O144        O  0.56268171  0.05371807  0.03405288    -0.55500
C145        C  0.58442305  0.03824961  0.42843550     0.77200
O146        O  0.57917407  0.08886993  0.42210133    -0.56600
C147        C  0.56187596  0.06925881  0.04490149     0.77100
C148        C  0.62548240  0.09230358  0.01184886     0.79500
Cd149      Cd  0.58576838  0.07028739  0.47677922     1.37500
O150        O  0.57762500  0.03520657  0.46473666    -0.55500
O151        O  0.61278585  0.07408995  0.02035892    -0.54300
C152        C  0.56041132  0.07548348  0.42063588     0.79500
O153        O  0.62003747  0.10075261  0.48528662    -0.56700
O154        O  0.59369369  0.05645884  0.41642866    -0.55100
O155        O  0.57304764  0.08541568  0.02537520    -0.55100
O156        O  0.55428885  0.06099522  0.44558755    -0.54300
O157        O  0.78395855  0.69579034  0.04988255    -0.55500
C158        C  0.83359039  0.73305629  0.13268535     0.77200
O159        O  0.83602391  0.74916592  0.00794816    -0.56600
C160        C  0.78092775  0.69905168  0.01320047     0.77100
C161        C  0.79177003  0.75372994  0.09137689     0.79500
Cd162      Cd  0.81050626  0.73137776  0.06265949     1.37500
O163        O  0.81718134  0.71697511  0.12378663    -0.55500
O164        O  0.78557534  0.73551314  0.10105015    -0.54300
C165        C  0.84126239  0.73574279  0.00694544     0.79500
O166        O  0.80670498  0.76187529  0.06680538    -0.56700
O167        O  0.83837362  0.74829881  0.11031703    -0.55100
O168        O  0.78986795  0.71735348  0.00185579    -0.55100
O169        O  0.83288880  0.72159443  0.03270528    -0.54300
O170        O  0.75717734  0.63512387  0.36488025    -0.55500
C171        C  0.76935824  0.59550912  0.28708004     0.77200
O172        O  0.75682698  0.58163707  0.40903597    -0.56600
C173        C  0.74990793  0.63248180  0.40080548     0.77100
C174        C  0.70837573  0.57549289  0.32596430     0.79500
Cd175      Cd  0.74875627  0.59958693  0.35609627     1.37500
O176        O  0.76917773  0.61185950  0.29323656    -0.55500
O177        O  0.72119207  0.59217197  0.31003030    -0.54300
C178        C  0.77518878  0.59583810  0.41222475     0.79500
O179        O  0.71389373  0.57017502  0.35799498    -0.56700
O180        O  0.75963040  0.58134426  0.31235165    -0.55100
O181        O  0.74045958  0.61440502  0.41351557    -0.55100
O182        O  0.78070156  0.61095582  0.38911436    -0.54300
O183        O  0.89330630  0.71545961  0.37507522    -0.55500
C184        C  0.91070756  0.69448762  0.26781907     0.77200
O185        O  0.90672685  0.74658242  0.25798047    -0.56600
C186        C  0.89249784  0.73147376  0.38115178     0.77100
C187        C  0.95462402  0.75133171  0.34102353     0.79500
Cd188      Cd  0.91364342  0.72816719  0.31222983     1.37500
O189        O  0.90326289  0.69213558  0.30348947    -0.55500
O190        O  0.94142550  0.73505340  0.35768045    -0.54300
C191        C  0.88797577  0.73325963  0.25609170     0.79500
O192        O  0.94914692  0.75689828  0.30930994    -0.56700
O193        O  0.92098530  0.71251848  0.25522822    -0.55100
O194        O  0.90217824  0.74584696  0.35625083    -0.55100
O195        O  0.88185050  0.71855004  0.28051708    -0.54300
O196        O  0.84559512  0.61133927  0.04564611    -0.55500
C197        C  0.88003827  0.62765387  0.15608505     0.77200
O198        O  0.82533403  0.57702984  0.16010626    -0.56600
C199        C  0.82967211  0.59531723  0.03446465     0.77100
C200        C  0.87143135  0.57452231  0.07656981     0.79500
Cd201      Cd  0.85134357  0.59555482  0.10574466     1.37500
O202        O  0.87701214  0.63096947  0.11946368    -0.55500
O203        O  0.87805031  0.59311771  0.06996934    -0.54300
C204        C  0.81974425  0.59019423  0.16079405     0.79500
O205        O  0.85550334  0.56539978  0.09837210    -0.56700
O206        O  0.87150127  0.60932415  0.16718972    -0.55100
O207        O  0.82487808  0.57952720  0.05501485    -0.55100
O208        O  0.82811844  0.60438249  0.13515353    -0.54300
O209        O  0.43432263  0.48800515  0.22334505    -0.55500
C210        C  0.42043358  0.45182882  0.33058736     0.77200
O211        O  0.42070150  0.50463840  0.34476286    -0.56600
C212        C  0.43566633  0.50505677  0.21739224     0.77100
C213        C  0.37310024  0.46116796  0.25634998     0.79500
Cd214      Cd  0.41437545  0.48087953  0.28649704     1.37500
O215        O  0.42661607  0.45669004  0.29406143    -0.55500
O216        O  0.38527025  0.45482536  0.24924451    -0.54300
C217        C  0.43974892  0.51125281  0.34381658     0.79500
O218        O  0.37962051  0.47649110  0.27964866    -0.56700
O219        O  0.40980526  0.45892607  0.34476101    -0.55100
O220        O  0.42634368  0.51013033  0.24238868    -0.55100
O221        O  0.44606109  0.50437694  0.31592361    -0.54300
O222        O  0.49104736  0.43060699  0.03693540    -0.55500
C223        C  0.45417635  0.41458032  0.43301510     0.77200
O224        O  0.50711753  0.41491260  0.41831479    -0.56600
C225        C  0.50746083  0.43085738  0.04503263     0.77100
C226        C  0.46466178  0.36856209  0.00854756     0.79500
Cd227      Cd  0.48352403  0.40911069  0.47661887     1.37500
O228        O  0.45867948  0.42051363  0.46972691    -0.55500
O229        O  0.45806226  0.38054593  0.01508698    -0.54300
C230        C  0.51377196  0.43389623  0.41837505     0.79500
O231        O  0.47985237  0.37491740  0.48477605    -0.56700
O232        O  0.46134579  0.40401352  0.41891365    -0.55100
O233        O  0.51192235  0.42023943  0.02240706    -0.55100
O234        O  0.50694711  0.44047409  0.44584682    -0.54300
O235        O  0.54574632  0.57423328  0.04502180    -0.55500
C236        C  0.49598902  0.56391442  0.46692595     0.77200
O237        O  0.49567860  0.57846236  0.09299303    -0.56600
C238        C  0.54982359  0.58015168  0.08185344     0.77100
C239        C  0.53910656  0.62539392  0.50869829     0.79500
Cd240      Cd  0.51993090  0.58450296  0.03683748     1.37500
O241        O  0.51208708  0.56354315  0.47519843    -0.55500
O242        O  0.54533143  0.61333409  0.49971378    -0.54300
C243        C  0.48893718  0.55947426  0.09300547     0.79500
O244        O  0.52408785  0.61882021  0.03296388    -0.56700
O245        O  0.49190997  0.57471763  0.48986293    -0.55100
O246        O  0.54143648  0.58959765  0.09589730    -0.55100
O247        O  0.49628456  0.55290307  0.06657191    -0.54300
O248        O  0.57811682  0.53946686  0.22008337    -0.55500
C249        C  0.56690130  0.48879735  0.29390591     0.77200
O250        O  0.58104666  0.48802360  0.17182547    -0.56600
C251        C  0.58518124  0.54504838  0.18429780     0.77100
C252        C  0.62884353  0.53142970  0.25473540     0.79500
Cd253      Cd  0.58832770  0.51366803  0.22561524     1.37500
O254        O  0.56806033  0.50575949  0.28778106    -0.55500
O255        O  0.61504864  0.53268881  0.27362772    -0.54300
C256        C  0.56279042  0.48410891  0.16805648     0.79500
O257        O  0.62410622  0.52197864  0.22094033    -0.56700
O258        O  0.57631087  0.48380926  0.26886251    -0.55100
O259        O  0.59557623  0.53771544  0.17013308    -0.55100
O260        O  0.55723170  0.49363304  0.19123539    -0.54300
O261        O  0.15439468  0.76616002  0.19448096    -0.55500
C262        C  0.11550929  0.74755452  0.09074909     0.77200
O263        O  0.17224186  0.75152799  0.07822440    -0.56600
C264        C  0.17131259  0.76722962  0.20147582     0.77100
C265        C  0.13159455  0.70467888  0.16509567     0.79500
Cd266      Cd  0.14706966  0.74481038  0.13341301     1.37500
O267        O  0.12063598  0.75435721  0.12676696    -0.55500
O268        O  0.12833787  0.71772762  0.18167225    -0.54300
C269        C  0.17855290  0.77042301  0.07791248     0.79500
O270        O  0.14152389  0.70976538  0.13182064    -0.56700
O271        O  0.12342620  0.73767537  0.07675621    -0.55100
O272        O  0.17612132  0.75712727  0.17804297    -0.55100
O273        O  0.17039119  0.77661540  0.10325894    -0.54300
O274        O  0.09710078  0.82060458  0.38379726    -0.55500
C275        C  0.07904860  0.78126491  0.48733472     0.77200
O276        O  0.08109258  0.83659313  0.49969983    -0.56600
C277        C  0.09800350  0.83744716  0.37752612     0.77100
C278        C  0.03485360  0.79384872  0.41145857     0.79500
Cd279      Cd  0.07526238  0.81188346  0.44398595     1.37500
O280        O  0.08565018  0.78606602  0.45104489    -0.55500
O281        O  0.04895648  0.79260254  0.39383128    -0.54300
C282        C  0.09985084  0.84208631  0.50216487     0.79500
O283        O  0.03923534  0.80339824  0.44513278    -0.56700
O284        O  0.06879458  0.78885670  0.50094193    -0.55100
O285        O  0.08777243  0.84192853  0.40144654    -0.55100
O286        O  0.10625800  0.83383375  0.47753927    -0.54300
O287        O  0.24140362  0.87506518  0.37571867    -0.55500
C288        C  0.23189335  0.82556613  0.45450695     0.77200
O289        O  0.24549737  0.82621043  0.32613410    -0.56600
C290        C  0.24769397  0.87944131  0.33909964     0.77100
C291        C  0.29360758  0.86893439  0.41234865     0.79500
Cd292      Cd  0.25220102  0.84972811  0.38429233     1.37500
O293        O  0.23212015  0.84204648  0.44768045    -0.55500
O294        O  0.28173771  0.87551286  0.42072206    -0.54300
C295        C  0.22653846  0.82000640  0.32609784     0.79500
O296        O  0.28666325  0.85366214  0.38882835    -0.56700
O297        O  0.24169266  0.82098145  0.42970770    -0.55100
O298        O  0.25778047  0.87162512  0.32555061    -0.55100
O299        O  0.22015463  0.82690465  0.35385776    -0.54300
O300        O  0.20620333  0.90657037  0.19935611    -0.55500
C301        C  0.15492740  0.89506632  0.12622908     0.77200
O302        O  0.15646886  0.91118691  0.25084723    -0.56600
C303        C  0.21170784  0.91362550  0.23512793     0.77100
C304        C  0.19765411  0.95740343  0.16033439     0.79500
Cd305      Cd  0.18046849  0.91720586  0.19321677     1.37500
O306        O  0.17165331  0.89563292  0.13258121    -0.55500
O307        O  0.20082366  0.94403330  0.14506154    -0.54300
C308        C  0.15067835  0.89240263  0.25232856     0.79500
O309        O  0.18704657  0.95260047  0.19276711    -0.56700
O310        O  0.15055635  0.90532407  0.15021413    -0.55100
O311        O  0.20443506  0.92414231  0.24886683    -0.55100
O312        O  0.15821402  0.88599272  0.22599643    -0.54300
O313        O  0.12306364  0.36499902  0.38317976    -0.55500
C314        C  0.17298749  0.40354213  0.46389345     0.77200
O315        O  0.17388825  0.41793798  0.33803978    -0.56600
C316        C  0.11955448  0.36742024  0.34624818     0.77100
C317        C  0.13024201  0.42289852  0.42165632     0.79500
Cd318      Cd  0.14921408  0.40073530  0.39391770     1.37500
O319        O  0.15629922  0.38748663  0.45635411    -0.55500
O320        O  0.12261862  0.40408387  0.42726740    -0.54300
C321        C  0.17948163  0.40477389  0.33773611     0.79500
O322        O  0.14666062  0.43178556  0.40133338    -0.56700
O323        O  0.17776680  0.41833089  0.44022556    -0.55100
O324        O  0.12819236  0.38549331  0.33340559    -0.55100
O325        O  0.17141731  0.39081496  0.36396966    -0.54300
O326        O  0.09381777  0.30111825  0.20078725    -0.55500
C327        C  0.10301741  0.26232082  0.11851079     0.77200
O328        O  0.08976253  0.24707868  0.24655183    -0.56600
C329        C  0.08761608  0.29885031  0.23753772     0.77100
C330        C  0.04178384  0.24289491  0.16305828     0.79500
Cd331      Cd  0.08313943  0.26493049  0.19048545     1.37500
O332        O  0.10281394  0.27840480  0.12738492    -0.55500
O333        O  0.05318128  0.26170266  0.15751531    -0.54300
C334        C  0.10865521  0.26006275  0.24687741     0.79500
O335        O  0.04916138  0.23404927  0.18368808    -0.56700
O336        O  0.09341000  0.24747922  0.14234839    -0.55100
O337        O  0.07802129  0.28082475  0.25059408    -0.55100
O338        O  0.11496364  0.27374557  0.22000265    -0.54300
O339        O  0.23337968  0.38687024  0.20652907    -0.55500
C340        C  0.25007318  0.36702835  0.09786910     0.77200
O341        O  0.24728245  0.41855320  0.08809311    -0.56600
C342        C  0.23267463  0.40282094  0.21404690     0.77100
C343        C  0.29450125  0.42213866  0.17657622     0.79500
Cd344      Cd  0.25388652  0.40056188  0.14443378     1.37500
O345        O  0.24258793  0.36451485  0.13354968    -0.55500
O346        O  0.28239024  0.40354052  0.18310224    -0.54300
C347        C  0.22838827  0.40552209  0.08736304     0.79500
O348        O  0.28821933  0.43107094  0.15310815    -0.56700
O349        O  0.26097844  0.38516895  0.08605306    -0.55100
O350        O  0.24244783  0.41757575  0.19008001    -0.55100
O351        O  0.22215338  0.39151882  0.11351820    -0.54300
O352        O  0.18026321  0.27917616  0.37924038    -0.55500
C353        C  0.21663687  0.29901220  0.48789140     0.77200
O354        O  0.16091327  0.24681617  0.49377586    -0.56600
C355        C  0.16378583  0.26299052  0.37126037     0.77100
C356        C  0.20546942  0.24322323  0.41077198     0.79500
Cd357      Cd  0.18719146  0.26549201  0.44060604     1.37500
O358        O  0.21241075  0.30148874  0.45160938    -0.55500
O359        O  0.21131076  0.26122546  0.39996413    -0.54300
C360        C  0.15559642  0.26018061  0.49422437     0.79500
O361        O  0.19145774  0.23548777  0.43741482    -0.56700
O362        O  0.20889632  0.28088765  0.50002477    -0.55100
O363        O  0.15920336  0.24798907  0.39417618    -0.55100
O364        O  0.16440198  0.27463485  0.46928817    -0.54300
O365        O  0.27321195  0.17256354  0.36036886    -0.55500
C366        C  0.29613492  0.21128774  0.25832401     0.77200
O367        O  0.24384883  0.15838049  0.23847320    -0.56600
C368        C  0.25704013  0.15588898  0.36690920     0.77100
C369        C  0.24071923  0.20092027  0.33014087     0.79500
Cd370      Cd  0.26074943  0.18065143  0.29846574     1.37500
O371        O  0.29690649  0.20518952  0.29398023    -0.55500
O372        O  0.25921536  0.20675058  0.33629150    -0.54300
C373        C  0.25665969  0.15230146  0.23756971     0.79500
O374        O  0.23103258  0.18561858  0.30705276    -0.56700
O375        O  0.27862641  0.20439212  0.24298035    -0.55100
O376        O  0.24254206  0.15122502  0.34236469    -0.55100
O377        O  0.26999398  0.15889622  0.26521520    -0.54300
O378        O  0.36759700  0.24026557  0.12690369    -0.55500
C379        C  0.40478163  0.22702644  0.05424365     0.77200
O380        O  0.43497298  0.28393193  0.11218355    -0.56600
C381        C  0.36896040  0.24707359  0.16285156     0.77100
C382        C  0.40745053  0.22556399  0.18298854     0.79500
Cd383      Cd  0.40355461  0.25015804  0.12180281     1.37500
O384        O  0.38912752  0.22840880  0.06119819    -0.55500
O385        O  0.39404551  0.21909430  0.15551486    -0.54300
C386        C  0.42608448  0.29068418  0.08982590     0.79500
O387        O  0.42041984  0.24441602  0.18211667    -0.56700
O388        O  0.41985216  0.23713718  0.07735364    -0.55100
O389        O  0.38664730  0.25698731  0.17776005    -0.55100
O390        O  0.40730624  0.27901949  0.08408728    -0.54300
O391        O  0.29540727  0.08400579  0.04481410    -0.55500
C392        C  0.25818691  0.09868232  0.11463720     0.77200
O393        O  0.24137419  0.08244751  0.99351105    -0.56600
C394        C  0.29392650  0.07658701  0.00945740     0.77100
C395        C  0.23546731  0.03576990  0.08277149     0.79500
Cd396      Cd  0.25970971  0.07548419  0.04857814     1.37500
O397        O  0.27416458  0.09791898  0.10720204    -0.55500
O398        O  0.25054334  0.04993331  0.10089096    -0.54300
C399        C  0.25505754  0.10099844  0.99071750     0.79500
O400        O  0.23135810  0.03973886  0.04757105    -0.56700
O401        O  0.24292877  0.08793578  0.09232385    -0.55100
O402        O  0.27624942  0.06694100  0.99455421    -0.55100
O403        O  0.27001124  0.10692060  0.01446226    -0.54300
O404        O  0.36448533  0.11714786  0.37639088    -0.55500
C405        C  0.40428510  0.16930774  0.30561361     0.77200
O406        O  0.41772449  0.16643486  0.43026289    -0.56600
C407        C  0.36580579  0.11155272  0.41219496     0.77100
C408        C  0.42260647  0.12513669  0.33792503     0.79500
Cd409      Cd  0.40060430  0.14327544  0.37160810     1.37500
O410        O  0.38798539  0.15269629  0.31206410    -0.55500
O411        O  0.40622458  0.12266795  0.32300087    -0.54300
C412        C  0.40510176  0.17274724  0.43092103     0.79500
O413        O  0.42903226  0.13594031  0.36999063    -0.56700
O414        O  0.41909330  0.17327101  0.32888499    -0.55100
O415        O  0.38347977  0.11927454  0.42699202    -0.55100
O416        O  0.39141882  0.16564327  0.40396688    -0.54300
O417        O  0.94500330  0.43116892  0.28498022    -0.55500
C418        C  0.96479299  0.41421949  0.17663974     0.77200
O419        O  0.90114913  0.37568621  0.23272408    -0.56600
C420        C  0.92892604  0.43169012  0.29278074     0.77100
C421        C  0.92570854  0.43556242  0.16671664     0.79500
Cd422      Cd  0.93106380  0.41020684  0.22339870     1.37500
O423        O  0.96703157  0.42118884  0.21269616    -0.55500
O424        O  0.93945491  0.44183609  0.19349867    -0.54300
C425        C  0.91054258  0.36986225  0.25607384     0.79500
O426        O  0.91302947  0.41660535  0.16663224    -0.56700
O427        O  0.94670062  0.40381679  0.16396667    -0.55100
O428        O  0.91388420  0.42142374  0.26968203    -0.55100
O429        O  0.92912943  0.38232400  0.26218639    -0.54300
O430        O  0.03204108  0.45535814  0.03465481    -0.55500
C431        C  0.07058137  0.50598066  0.45759734     0.77200
O432        O  0.08673304  0.50568860  0.08164016    -0.56600
C433        C  0.03427700  0.45055475  0.07061885     0.77100
C434        C  0.08995056  0.46241236  0.49451978     0.79500
Cd435      Cd  0.06815120  0.48128152  0.02545846     1.37500
O436        O  0.05445754  0.48934606  0.46494744    -0.55500
O437        O  0.07184125  0.45687527  0.48474799    -0.54300
C438        C  0.07328047  0.51087549  0.08419178     0.79500
O439        O  0.09826140  0.47680442  0.02013592    -0.56700
O440        O  0.08554008  0.51042275  0.48065663    -0.55100
O441        O  0.05233365  0.45864506  0.08360553    -0.55100
O442        O  0.05877095  0.50275868  0.05913182    -0.54300
O443        O  0.94657897  0.50780820  0.03521520    -0.55500
C444        C  0.96777187  0.54663876  0.42778632     0.77200
O445        O  0.91660064  0.49282386  0.41548557    -0.56600
C446        C  0.93017416  0.49127680  0.04176985     0.77100
C447        C  0.91205091  0.53529832  0.00309838     0.79500
Cd448      Cd  0.93390804  0.51616130  0.47334198     1.37500
O449        O  0.96999612  0.54233074  0.46421562    -0.55500
O450        O  0.93053923  0.54174444  0.01112757    -0.54300
C451        C  0.92867763  0.48584699  0.41597603     0.79500
O452        O  0.90340056  0.51997939  0.47974826    -0.56700
O453        O  0.94977474  0.53788863  0.41432634    -0.55100
O454        O  0.91562278  0.48708401  0.01770785    -0.55100
O455        O  0.94221979  0.49273491  0.44324584    -0.54300
O456        O  0.05623580  0.56529062  0.21492623    -0.55500
C457        C  0.03635600  0.58464349  0.31976531     0.77200
O458        O  0.08738273  0.57948953  0.33028787    -0.56600
C459        C  0.07213509  0.56427475  0.20810960     0.77100
C460        C  0.09375889  0.62629203  0.24126398     0.79500
Cd461      Cd  0.06969144  0.58667291  0.27497168     1.37500
O462        O  0.03385355  0.57777090  0.28358150    -0.55500
O463        O  0.07780555  0.61270028  0.22430334    -0.54300
C464        C  0.07347368  0.56098619  0.33268544     0.79500
O465        O  0.09855294  0.62185841  0.27528592    -0.56700
O466        O  0.05449355  0.59472276  0.33215337    -0.55100
O467        O  0.08698966  0.57419583  0.23193492    -0.55100
O468        O  0.05904194  0.55507770  0.30756256    -0.54300
C469        C  0.98248574  0.56149937  0.35896939     0.25900
C470        C  0.98528112  0.56013311  0.40121700    -0.22200
C471        C  0.00517888  0.57007813  0.41669880     0.20800
C472        C  0.02183525  0.57981304  0.39034571     0.25900
C473        C  0.01902272  0.57939596  0.34771413    -0.22100
C474        C  0.99916574  0.57087339  0.33253703     0.20800
F475        F  0.99580884  0.57079205  0.29182998    -0.12100
F476        F  0.96359497  0.55269959  0.34261195    -0.14400
F477        F  0.04073931  0.58828461  0.40657135    -0.14400
F478        F  0.00866514  0.56950000  0.45717018    -0.12100
C479        C  0.05601472  0.51360255  0.39614063     0.25900
C480        C  0.07184945  0.51978588  0.42447801    -0.22200
C481        C  0.08861447  0.53961348  0.42173506     0.20800
C482        C  0.08935960  0.55294361  0.39163084     0.25900
C483        C  0.07343056  0.54677947  0.36351956    -0.22100
C484        C  0.05678404  0.52686449  0.36603646     0.20800
F485        F  0.04090990  0.52015443  0.33982840    -0.12100
F486        F  0.03957272  0.49469456  0.39756141    -0.14400
F487        F  0.10557572  0.57199376  0.39054201    -0.14400
F488        F  0.10413842  0.54638763  0.44880071    -0.12100
C489        C  0.09116397  0.53759446  0.13809766     0.25900
C490        C  0.07371469  0.52528613  0.11495360    -0.22200
C491        C  0.05614438  0.52662825  0.12160256     0.20800
C492        C  0.05588397  0.53965259  0.15097973     0.25900
C493        C  0.07313543  0.55167661  0.17481270    -0.22100
C494        C  0.09091516  0.55073079  0.16764994     0.20800
F495        F  0.10808100  0.56237701  0.18937073    -0.12100
F496        F  0.10847151  0.53697612  0.13218118    -0.14400
F497        F  0.03845666  0.54009658  0.15647690    -0.14400
F498        F  0.03880131  0.51489632  0.10043799    -0.12100
C499        C  0.94192604  0.45094846  0.35819394     0.25900
C500        C  0.92786193  0.44421395  0.32608995    -0.22200
C501        C  0.91330838  0.45042770  0.32489195     0.20800
C502        C  0.91324115  0.46359377  0.35447479     0.25900
C503        C  0.92765849  0.47078432  0.38603776    -0.22100
C504        C  0.94182376  0.46402505  0.38787067     0.20800
F505        F  0.95592280  0.47029342  0.41799135    -0.12100
F506        F  0.95588349  0.44493213  0.36093408    -0.14400
F507        F  0.89932710  0.46964556  0.35149147    -0.14400
F508        F  0.89958962  0.44444750  0.29409997    -0.12100
C509        C  0.94216188  0.48393243  0.10722521     0.25900
C510        C  0.92809387  0.47727411  0.07516161    -0.22200
C511        C  0.91229780  0.45689573  0.07471231     0.20800
C512        C  0.91098024  0.44340830  0.10513667     0.25900
C513        C  0.92544748  0.44996346  0.13658595    -0.22100
C514        C  0.94078990  0.47055030  0.13768164     0.20800
F515        F  0.95485589  0.47786366  0.16790498    -0.12100
F516        F  0.95742564  0.50346326  0.10917599    -0.14400
F517        F  0.89575255  0.42386675  0.10322259    -0.14400
F518        F  0.89849069  0.44974864  0.04400553    -0.12100
C519        C  0.01911916  0.43777380  0.14001366     0.25900
C520        C  0.01669323  0.43741859  0.09727676    -0.22200
C521        C  0.99699667  0.42630124  0.08105630     0.20800
C522        C  0.98005942  0.41727326  0.10693649     0.25900
C523        C  0.98245692  0.41934510  0.14969154    -0.22100
C524        C  0.00220131  0.42885450  0.16584837     0.20800
F525        F  0.00521294  0.43036571  0.20684463    -0.12100
F526        F  0.03782199  0.44793825  0.15718864    -0.14400
F527        F  0.96130685  0.40764610  0.08988257    -0.14400
F528        F  0.99401368  0.42485680  0.04005402    -0.12100
C529        C  0.34886028  0.09796973  0.47978137     0.25900
C530        C  0.34758587  0.09809311  0.43683178    -0.22200
C531        C  0.32835874  0.08754006  0.41844551     0.20800
C532        C  0.31077432  0.07872331  0.44238609     0.25900
C533        C  0.31204927  0.08062225  0.48525566    -0.22100
C534        C  0.33126861  0.08941661  0.50371244     0.20800
F535        F  0.33313816  0.09081007  0.04497820    -0.12100
F536        F  0.36710280  0.10756711  0.49893300    -0.14400
F537        F  0.29252669  0.06977315  0.42324092    -0.14400
F538        F  0.32647069  0.08672009  0.37718048    -0.12100
C539        C  0.42349574  0.21702372  0.24139142     0.25900
C540        C  0.40726813  0.21137383  0.21418202    -0.22200
C541        C  0.39036803  0.19162931  0.21685775     0.20800
C542        C  0.38968037  0.17796167  0.24582240     0.25900
C543        C  0.40576566  0.18359121  0.27330421    -0.22100
C544        C  0.42277297  0.20327639  0.27062680     0.20800
F545        F  0.43862640  0.20942308  0.29669274    -0.12100
F546        F  0.44009159  0.23581082  0.23978995    -0.14400
F547        F  0.37305490  0.15916894  0.24692370    -0.14400
F548        F  0.37411688  0.18544434  0.19185049    -0.12100
C549        C  0.42006135  0.20781901  0.52268084     0.25900
C550        C  0.40541460  0.21391276  0.02164450    -0.22200
C551        C  0.39105948  0.20678031  0.99002280     0.20800
C552        C  0.39119825  0.19371031  0.46034902     0.25900
C553        C  0.40571471  0.18738149  0.46158170    -0.22100
C554        C  0.42021712  0.19472828  0.49299598     0.20800
F555        F  0.43440228  0.18902056  0.49555712    -0.12100
F556        F  0.43393359  0.21400690  0.55321589    -0.14400
F557        F  0.37689205  0.18716448  0.43060003    -0.14400
F558        F  0.37685654  0.21248796  0.98758859    -0.12100
C559        C  0.27392227  0.13627001  0.20138930     0.25900
C560        C  0.25668447  0.13841029  0.20608104    -0.22200
C561        C  0.23985161  0.12716482  0.18069708     0.20800
C562        C  0.24020897  0.11401982  0.15140998     0.25900
C563        C  0.25743096  0.11184289  0.14691197    -0.22100
C564        C  0.27423754  0.12308718  0.17238102     0.20800
F565        F  0.29117352  0.12154479  0.16915569    -0.12100
F566        F  0.29081434  0.14726022  0.22432968    -0.14400
F567        F  0.22371906  0.10364109  0.12713348    -0.14400
F568        F  0.22295961  0.12873804  0.18427727    -0.12100
C569        C  0.26990920  0.14920069  0.43188159     0.25900
C570        C  0.25534369  0.14224697  0.40065807    -0.22200
C571        C  0.23970291  0.12183810  0.40095299     0.20800
C572        C  0.23922776  0.10848654  0.43073083     0.25900
C573        C  0.25428169  0.11526544  0.46103512    -0.22100
C574        C  0.26937136  0.13593367  0.46174375     0.20800
F575        F  0.28393464  0.14343059  0.99101400    -0.12100
F576        F  0.28486326  0.16888200  0.43350105    -0.14400
F577        F  0.22435720  0.08879599  0.42900275    -0.14400
F578        F  0.22521338  0.11452406  0.37154942    -0.12100
C579        C  0.31396213  0.22629803  0.19198564     0.25900
C580        C  0.31480282  0.22452794  0.23470103    -0.22200
C581        C  0.33389845  0.23328296  0.25370244     0.20800
C582        C  0.35165980  0.24211284  0.23037902     0.25900
C583        C  0.35072797  0.24221947  0.18743216    -0.22100
C584        C  0.33174728  0.23493977  0.16860854     0.20800
F585        F  0.33027782  0.23528291  0.12734879    -0.12100
F586        F  0.29589407  0.21841035  0.17233329    -0.14400
F587        F  0.36964723  0.24903158  0.24990050    -0.14400
F588        F  0.33543506  0.23230698  0.29482889    -0.12100
C589        C  0.21076079  0.20113743  0.36181363     0.25900
C590        C  0.23127655  0.21155667  0.34994402    -0.22200
C591        C  0.24332150  0.23217546  0.35987103     0.20800
C592        C  0.23494367  0.24229624  0.38024119     0.25900
C593        C  0.21446320  0.23194332  0.39209586    -0.22100
C594        C  0.20248182  0.21120509  0.38320747     0.20800
F595        F  0.18262834  0.20082461  0.39418881    -0.12100
F596        F  0.19887626  0.18111374  0.35373698    -0.14400
F597        F  0.24700100  0.26224026  0.38892566    -0.14400
F598        F  0.26325826  0.24268110  0.34946020    -0.12100
C599        C  0.23933259  0.33625154  0.00075708     0.25900
C600        C  0.22865336  0.31633971  0.01579833    -0.22200
C601        C  0.22746706  0.31333086  0.05843285     0.20800
C602        C  0.23554282  0.32981898  0.08525067     0.25900
C603        C  0.24508575  0.34972518  0.07017642    -0.22100
C604        C  0.24752615  0.35274041  0.02758760     0.20800
F605        F  0.25666579  0.37166239  0.01154854    -0.12100
F606        F  0.24112778  0.33987265  0.45995932    -0.14400
F607        F  0.23324333  0.32620610  0.12603678    -0.14400
F608        F  0.21728462  0.29441571  0.07446069    -0.12100
C609        C  0.12842225  0.27876874  0.06247079     0.25900
C610        C  0.11459254  0.26109649  0.08330707    -0.22200
C611        C  0.11309629  0.24255705  0.07200701     0.20800
C612        C  0.12601625  0.24199658  0.04220898     0.25900
C613        C  0.14058496  0.25990982  0.02317816    -0.22100
C614        C  0.14124451  0.27819157  0.03285157     0.20800
F615        F  0.15500075  0.29586809  0.51500623    -0.12100
F616        F  0.13023637  0.29690375  0.07180395    -0.14400
F617        F  0.12422509  0.22396432  0.03194192    -0.14400
F618        F  0.09930999  0.22496302  0.09003937    -0.12100
C619        C  0.11781727  0.24314071  0.30193438     0.25900
C620        C  0.12291747  0.26012695  0.27752483    -0.22200
C621        C  0.14181004  0.27785600  0.28352385     0.20800
C622        C  0.15517309  0.27865745  0.31340491     0.25900
C623        C  0.15012874  0.26171041  0.33789351    -0.22100
C624        C  0.13130055  0.24388459  0.33173267     0.20800
F625        F  0.12562660  0.22723052  0.35511950    -0.12100
F626        F  0.09976977  0.22581299  0.29718821    -0.14400
F627        F  0.17283934  0.29631221  0.31893454    -0.14400
F628        F  0.14720258  0.29484758  0.26146342    -0.12100
C629        C  0.13169476  0.45269630  0.45734011     0.25900
C630        C  0.12030845  0.43364670  0.43872454    -0.22200
C631        C  0.09905570  0.42408593  0.43919478     0.20800
C632        C  0.08930926  0.43345488  0.45729863     0.25900
C633        C  0.10058938  0.45248733  0.47626199    -0.22100
C634        C  0.12192227  0.46195518  0.47634862     0.20800
F635        F  0.13335326  0.48020798  0.49456222    -0.12100
F636        F  0.15224069  0.46196758  0.45860471    -0.14400
F637        F  0.06872325  0.42361298  0.95683360    -0.14400
F638        F  0.08763748  0.40561765  0.42176319    -0.12100
C639        C  0.19454203  0.38865975  0.05267295     0.25900
C640        C  0.21400324  0.40584910  0.05728170    -0.22200
C641        C  0.21943028  0.42274548  0.03229950     0.20800
C642        C  0.20591238  0.42227412  0.50276106     0.25900
C643        C  0.18664553  0.40483944  0.99752530    -0.22100
C644        C  0.18109888  0.38817754  0.02325036     0.20800
F645        F  0.16276210  0.37108570  0.01949460    -0.12100
F646        F  0.18855320  0.37187363  0.07582639    -0.14400
F647        F  0.21196152  0.43879799  0.47875783    -0.14400
F648        F  0.23784482  0.43972269  0.03622605    -0.12100
C649        C  0.19716072  0.38824683  0.30466456     0.25900
C650        C  0.19427520  0.40504859  0.30799108    -0.22200
C651        C  0.20520036  0.42162569  0.28188818     0.20800
C652        C  0.21825746  0.42121577  0.25239300     0.25900
C653        C  0.22051895  0.40408718  0.24803227    -0.22100
C654        C  0.21009804  0.38778457  0.27504112     0.20800
F655        F  0.21207614  0.37113297  0.27246971    -0.12100
F656        F  0.18703080  0.37185988  0.32926914    -0.14400
F657        F  0.22830344  0.43749958  0.22752824    -0.14400
F658        F  0.20312800  0.43821280  0.28448025    -0.12100
C659        C  0.10870033  0.35275525  0.27571877     0.25900
C660        C  0.10748341  0.34999056  0.31845903    -0.22200
C661        C  0.09697421  0.33014689  0.33382265     0.20800
C662        C  0.08957537  0.31352601  0.30740685     0.25900
C663        C  0.09231892  0.31630787  0.26477893    -0.22100
C664        C  0.10131533  0.33612186  0.24925246     0.20800
F665        F  0.10376152  0.33954753  0.20841899    -0.12100
F666        F  0.11809590  0.37160178  0.25929502    -0.14400
F667        F  0.08080674  0.29474159  0.32400972    -0.14400
F668        F  0.09454915  0.32673867  0.37466446    -0.12100
C669        C  0.20801309  0.97907858  0.09770949     0.25900
C670        C  0.20586681  0.97741462  0.14051533    -0.22200
C671        C  0.21210802  0.99500855  0.16377296     0.20800
C672        C  0.22113293  0.01396618  0.14473565     0.25900
C673        C  0.22379071  0.01563839  0.10205463    -0.22100
C674        C  0.21668135  0.99799079  0.07864441     0.20800
F675        F  0.21902767  0.99910909  0.03746153    -0.12100
F676        F  0.20175418  0.96234961  0.07420933    -0.14400
F677        F  0.22736903  0.03074601  0.16808118    -0.14400
F678        F  0.21034494  0.99397032  0.20506715    -0.12100
C679        C  0.24329117  0.89064071  0.26951513     0.25900
C680        C  0.24225210  0.89173865  0.31240376    -0.22200
C681        C  0.23361866  0.90265091  0.32907401     0.20800
C682        C  0.22493486  0.91098189  0.30371646     0.25900
C683        C  0.22457764  0.90854019  0.26096099    -0.22100
C684        C  0.23447620  0.89885715  0.24413705     0.20800
F685        F  0.23485914  0.89649535  0.20312060    -0.12100
F686        F  0.25164248  0.88043776  0.25190137    -0.14400
F687        F  0.21563757  0.92023504  0.32147901    -0.14400
F688        F  0.23276854  0.90455902  0.37012737    -0.12100
C689        C  0.10688553  0.86426631  0.06411844     0.25900
C690        C  0.11392726  0.85696070  0.03240299    -0.22200
C691        C  0.13478016  0.86322774  0.03080774     0.20800
C692        C  0.14805487  0.87579828  0.06087570     0.25900
C693        C  0.14097763  0.88271984  0.09309945    -0.22100
C694        C  0.12029544  0.87709979  0.09406402     0.20800
F695        F  0.11281841  0.88337689  0.12483728    -0.12100
F696        F  0.08695064  0.85856475  0.06696148    -0.14400
F697        F  0.16791013  0.88114291  0.05832153    -0.14400
F698        F  0.14249472  0.85703738  0.00031403    -0.12100
C699        C  0.11421138  0.87133142  0.34231560     0.25900
C700        C  0.11063173  0.85136055  0.34446933    -0.22200
C701        C  0.11979542  0.84499683  0.31536089     0.20800
C702        C  0.13245605  0.85825696  0.28533712     0.25900
C703        C  0.13630655  0.87832841  0.28335944    -0.22100
C704        C  0.12686649  0.88464647  0.31200499     0.20800
F705        F  0.13000085  0.90375231  0.31108044    -0.12100
F706        F  0.10587517  0.87822476  0.37009363    -0.14400
F707        F  0.14124257  0.85135080  0.25865032    -0.14400
F708        F  0.11668654  0.82589162  0.31592052    -0.12100
C709        C  0.12237404  0.68290204  0.22720179     0.25900
C710        C  0.12406554  0.68467542  0.18436765    -0.22200
C711        C  0.11757273  0.66715333  0.16070152     0.20800
C712        C  0.10826914  0.64811125  0.17943001     0.25900
C713        C  0.10574376  0.64635829  0.22212200    -0.22100
C714        C  0.11345134  0.66392565  0.24590197     0.20800
F715        F  0.11131658  0.66267389  0.28712443    -0.12100
F716        F  0.12921824  0.69959064  0.25107274    -0.14400
F717        F  0.10156964  0.63134273  0.15583295    -0.14400
F718        F  0.11931477  0.66834918  0.11940441    -0.12100
C719        C  0.21514768  0.79146039  0.98847818     0.25900
C720        C  0.22021087  0.81192834  0.98867615    -0.22200
C721        C  0.21304580  0.81888711  0.02071010     0.20800
C722        C  0.20026904  0.80554522  0.05059404     0.25900
C723        C  0.19413022  0.78479321  0.04899614    -0.22100
C724        C  0.20219637  0.77803212  0.01824946     0.20800
F725        F  0.19710727  0.75830832  0.01612139    -0.12100
F726        F  0.22200258  0.78413545  0.95848752    -0.14400
F727        F  0.19358086  0.81302773  0.08061216    -0.14400
F728        F  0.21819839  0.83862624  0.02302098    -0.12100
C729        C  0.20518636  0.78362534  0.23653966     0.25900
C730        C  0.18514166  0.78000726  0.23445036    -0.22200
C731        C  0.17884551  0.78942718  0.26309236     0.20800
C732        C  0.19221035  0.80213396  0.29302547     0.25900
C733        C  0.21230903  0.80584536  0.29505217    -0.22100
C734        C  0.21861129  0.79643673  0.26638636     0.20800
F735        F  0.23784532  0.79974385  0.26682135    -0.12100
F736        F  0.21208799  0.77518752  0.20903491    -0.14400
F737        F  0.18545501  0.81116424  0.31942253    -0.14400
F738        F  0.15977082  0.78656197  0.26205848    -0.12100
C739        C  0.09273360  0.76225646  0.08195426     0.25900
C740        C  0.10234020  0.75229614  0.06508771    -0.22200
C741        C  0.10150721  0.74940975  0.02240466     0.20800
C742        C  0.09281020  0.75775876  0.99709347     0.25900
C743        C  0.08444678  0.76890180  0.01382605    -0.22100
C744        C  0.08379536  0.77035028  0.05668667     0.20800
F745        F  0.07588750  0.78095519  0.07432083    -0.12100
F746        F  0.09289939  0.76517288  0.12287793    -0.14400
F747        F  0.09342665  0.75568787  0.45603408    -0.14400
F748        F  0.11032631  0.73968565  0.00465679    -0.12100
C749        C  0.56964132  0.56703701  0.17608421     0.25900
C750        C  0.58008908  0.55799944  0.15894629    -0.22200
C751        C  0.58301741  0.55905171  0.11625602     0.20800
C752        C  0.57419473  0.56735366  0.09118591     0.25900
C753        C  0.56247227  0.57503393  0.10818571    -0.22100
C754        C  0.56101617  0.57552668  0.15106279     0.20800
F755        F  0.54998372  0.58289885  0.16896495    -0.12100
F756        F  0.56679483  0.56674476  0.21705907    -0.14400
F757        F  0.57640983  0.56702766  0.05010309    -0.14400
F758        F  0.59325143  0.55081801  0.09826352    -0.12100
C759        C  0.46588685  0.33823805  0.03556325     0.25900
C760        C  0.45505098  0.34841884  0.02858515    -0.22200
C761        C  0.43500036  0.33967469  0.04310759     0.20800
C762        C  0.42591222  0.32117661  0.06357879     0.25900
C763        C  0.43665605  0.31097690  0.07064194    -0.22100
C764        C  0.45679754  0.31972516  0.05665814     0.20800
F765        F  0.46746117  0.31007294  0.06223092    -0.12100
F766        F  0.48537647  0.34634941  0.02270138    -0.14400
F767        F  0.40651805  0.31331067  0.07692136    -0.14400
F768        F  0.42395435  0.34890073  0.03708806    -0.12100
C769        C  0.55306228  0.45616686  0.33341061     0.25900
C770        C  0.55462702  0.47520771  0.32770184    -0.22200
C771        C  0.54339449  0.48070777  0.35334907     0.20800
C772        C  0.53044660  0.46735638  0.38291532     0.25900
C773        C  0.52832595  0.44805847  0.38780733    -0.22100
C774        C  0.53993819  0.44268866  0.36301218     0.20800
F775        F  0.53865983  0.42443673  0.36740477    -0.12100
F776        F  0.56403315  0.45040695  0.31011647    -0.14400
F777        F  0.51947543  0.47324766  0.40589281    -0.14400
F778        F  0.54450058  0.49890851  0.34940278    -0.12100
C779        C  0.52881385  0.46697516  0.13415671     0.25900
C780        C  0.54840825  0.46952041  0.13799461    -0.22200
C781        C  0.55401120  0.45844812  0.11220944     0.20800
C782        C  0.54051051  0.44547804  0.08270077     0.25900
C783        C  0.52112806  0.44336204  0.07826108    -0.22100
C784        C  0.51540175  0.45412151  0.10462254     0.20800
F785        F  0.49686819  0.45248246  0.10167028    -0.12100
F786        F  0.52255852  0.47718038  0.15851884    -0.14400
F787        F  0.54670121  0.43538974  0.05785958    -0.14400
F788        F  0.57263986  0.46031600  0.11503019    -0.12100
C789        C  0.34371544  0.43109579  0.22345145     0.25900
C790        C  0.35260648  0.45121923  0.23731199    -0.22200
C791        C  0.34224306  0.46188238  0.23046494     0.20800
C792        C  0.32361049  0.45270635  0.20964466     0.25900
C793        C  0.31478550  0.43256832  0.19608770    -0.22100
C794        C  0.32496430  0.42184595  0.20358260     0.20800
F795        F  0.31688783  0.40237930  0.19100474    -0.12100
F796        F  0.35307681  0.42018090  0.22939616    -0.14400
F797        F  0.31393649  0.46332630  0.20378775    -0.14400
F798        F  0.35033088  0.48133414  0.24306420    -0.12100
C799        C  0.44945475  0.53775749  0.39861879     0.25900
C800        C  0.45430018  0.52574031  0.37394296    -0.22200
C801        C  0.47343905  0.52730518  0.37862106     0.20800
C802        C  0.48712176  0.54006960  0.40795346     0.25900
C803        C  0.48216738  0.55177064  0.43334649    -0.22100
C804        C  0.46327191  0.55071472  0.42790913     0.20800
F805        F  0.45788446  0.56187588  0.45148597    -0.12100
F806        F  0.43139642  0.53704340  0.39442720    -0.14400
F807        F  0.50508682  0.54055541  0.41191970    -0.14400
F808        F  0.47881964  0.51594023  0.35567765    -0.12100
C809        C  0.45469784  0.51145714  0.15157835     0.25900
C810        C  0.44793231  0.51869567  0.18381039    -0.22200
C811        C  0.45373981  0.53935848  0.18456095     0.20800
C812        C  0.46656316  0.55257375  0.15444647     0.25900
C813        C  0.47379482  0.54541674  0.12284610    -0.22100
C814        C  0.46731884  0.52458677  0.12130812     0.20800
F815        F  0.47346746  0.51680086  0.09089225    -0.12100
F816        F  0.44928004  0.49164213  0.14937614    -0.14400
F817        F  0.47228380  0.57245611  0.15696965    -0.14400
F818        F  0.44768628  0.54704323  0.21532101    -0.12100
C819        C  0.43166049  0.42957226  0.42392060     0.25900
C820        C  0.44258855  0.42104249  0.40678641    -0.22200
C821        C  0.44460263  0.42117498  0.36398538     0.20800
C822        C  0.43672415  0.43044208  0.33910360     0.25900
C823        C  0.42631667  0.43954228  0.35625842    -0.22100
C824        C  0.42348528  0.43856714  0.39897933     0.20800
F825        F  0.41382385  0.44736142  0.41711346    -0.12100
F826        F  0.42952149  0.42994125  0.46502360    -0.14400
F827        F  0.44014698  0.43125924  0.29827973    -0.14400
F828        F  0.45547227  0.41360158  0.34612901    -0.12100
C829        C  0.90245904  0.57542593  0.04816317     0.25900
C830        C  0.88177140  0.56419011  0.05878406    -0.22200
C831        C  0.87098523  0.54332226  0.05024488     0.20800
C832        C  0.88062081  0.53397697  0.03103309     0.25900
C833        C  0.90134070  0.54521681  0.02087052    -0.22100
C834        C  0.91215652  0.56601281  0.02986595     0.20800
F835        F  0.93214739  0.57738674  0.02033228    -0.12100
F836        F  0.91347008  0.59557099  0.05592664    -0.14400
F837        F  0.86979850  0.51382366  0.02337213    -0.14400
F838        F  0.85098293  0.53201806  0.05961815    -0.12100
C839        C  0.99232906  0.77400916  0.33367269     0.25900
C840        C  0.97518556  0.76317339  0.35866896    -0.22200
C841        C  0.97779212  0.76330074  0.40124549     0.20800
C842        C  0.99713783  0.77397354  0.41852082     0.25900
C843        C  0.01431837  0.78424559  0.39352148    -0.22100
C844        C  0.01176604  0.78424093  0.35092792     0.20800
F845        F  0.02811072  0.79423030  0.32601227    -0.12100
F846        F  0.99035495  0.77404891  0.29248998    -0.14400
F847        F  0.99912850  0.77351657  0.45961727    -0.14400
F848        F  0.96154108  0.75311500  0.42629232    -0.12100
C849        C  0.91179041  0.68040923  0.19910910     0.25900
C850        C  0.90642917  0.67715816  0.24083869    -0.22200
C851        C  0.89474221  0.65715149  0.25495631     0.20800
C852        C  0.88750301  0.64091405  0.22767323     0.29500
C853        C  0.89146921  0.64431897  0.18549580    -0.22100
C854        C  0.90421460  0.66418655  0.17173667     0.20800
F855        F  0.90865359  0.66806257  0.13143620    -0.12100
F856        F  0.92335007  0.69939625  0.18405343    -0.14400
F857        F  0.87524235  0.62196630  0.24233578    -0.14400
F858        F  0.88926926  0.65324494  0.29483358    -0.12100
C859        C  0.68545158  0.56450587  0.26517713     0.25900
C860        C  0.68815264  0.56297253  0.30735749    -0.22200
C861        C  0.67134938  0.54969949  0.33123601     0.20800
C862        C  0.65208225  0.53895217  0.31365100     0.25900
C863        C  0.64940198  0.54089233  0.27179237    -0.22100
C864        C  0.66625199  0.55337937  0.24750138     0.20800
F865        F  0.66395262  0.55564499  0.20710046    -0.12100
F866        F  0.70139612  0.57684019  0.24095497    -0.14400
F867        F  0.63595181  0.52670533  0.33756515    -0.14400
F868        F  0.67338797  0.54771586  0.37185754    -0.12100
C869        C  0.78478134  0.57697639  0.25270369     0.25900
C870        C  0.78069386  0.59304984  0.25284009    -0.22200
C871        C  0.78815207  0.60705942  0.22067566     0.20800
C872        C  0.80003401  0.60552894  0.18995065     0.25900
C873        C  0.80494880  0.58999869  0.19071548    -0.22100
C874        C  0.79677789  0.57548168  0.22200766     0.20800
F875        F  0.80085624  0.56014569  0.22377188    -0.12100
F876        F  0.77785950  0.56306405  0.28318079    -0.14400
F877        F  0.80710816  0.61969516  0.15995361    -0.14400
F878        F  0.78417910  0.62247836  0.21904049    -0.12100
C879        C  0.80809402  0.61306788  0.45049132     0.25900
C880        C  0.78964429  0.59528587  0.44165194    -0.22200
C881        C  0.78519349  0.57727345  0.46162580     0.20800
C882        C  0.79859489  0.57712488  0.49052720     0.25900
C883        C  0.81670379  0.59506314  0.00046599    -0.22100
C884        C  0.82141469  0.61296194  0.97958232     0.20800
F885        F  0.83869146  0.63058843  0.98789854    -0.12100
F886        F  0.81309094  0.63085095  0.43194131    -0.14400
F887        F  0.79353605  0.55938635  0.50929940    -0.14400
F888        F  0.76781562  0.55973731  0.45339292    -0.12100
C889        C  0.87606103  0.74913163  0.41494674     0.25900
C890        C  0.88050477  0.73330654  0.41484975    -0.22200
C891        C  0.87272150  0.71893037  0.44638605     0.20800
C892        C  0.86049136  0.72009715  0.47681875     0.25900
C893        C  0.85576656  0.73575648  0.47661632    -0.22100
C894        C  0.86396263  0.75041406  0.44561822     0.20800
F895        F  0.85983679  0.76572423  0.94414722    -0.12100
F896        F  0.88275288  0.76302819  0.38445894    -0.14400
F897        F  0.85294300  0.70550591  0.50598356    -0.14400
F898        F  0.87670734  0.70351469  0.44768758    -0.12100
C899        C  0.88014526  0.75053935  0.19953465     0.25900
C900        C  0.87372722  0.73416187  0.22652876    -0.22200
C901        C  0.85352137  0.71802040  0.22401794     0.20800
C902        C  0.84041279  0.71782415  0.19409041     0.25900
C903        C  0.84696099  0.73395254  0.16643838    -0.22100
C904        C  0.86687497  0.75052026  0.17005223     0.20800
F905        F  0.87384810  0.76652526  0.14423249    -0.12100
F906        F  0.89937521  0.76647157  0.20106791    -0.14400
F907        F  0.82134842  0.70163180  0.19200660    -0.14400
F908        F  0.84638117  0.70205563  0.24999733    -0.12100
C909        C  0.74866699  0.64628321  0.46991135     0.25900
C910        C  0.75369552  0.64963807  0.42802461    -0.22200
C911        C  0.76487172  0.66970285  0.41397953     0.20800
C912        C  0.77242575  0.68587349  0.44151413     0.25900
C913        C  0.76905920  0.68238530  0.48384866    -0.22100
C914        C  0.75637255  0.66246899  0.49750140     0.20800
F915        F  0.75207762  0.65851709  0.03782590    -0.12100
F916        F  0.73728051  0.62724124  0.48481947    -0.14400
F917        F  0.78436042  0.70486490  0.42676385    -0.14400
F918        F  0.76954588  0.67374607  0.37380304    -0.12100
C919        C  0.57318068  0.00171582  0.41593956     0.25900
C920        C  0.58023018  0.02126942  0.40046473    -0.22200
C921        C  0.58051149  0.02387027  0.35779346     0.20800
C922        C  0.57206719  0.00709334  0.33163064     0.25900
C923        C  0.56354523  0.98736487  0.34743481    -0.22100
C924        C  0.56512555  0.98499241  0.38976450     0.20800
F925        F  0.55769189  0.96634897  0.40647466    -0.12100
F926        F  0.57322461  0.99860471  0.45673143    -0.14400
F927        F  0.57135846  0.01018089  0.29100877    -0.14400
F928        F  0.58759919  0.04252724  0.34136878    -0.12100
C929        C  0.44478927  0.10954671  0.34157733     0.25900
C930        C  0.43338746  0.11572419  0.31831492    -0.22200
C931        C  0.43160260  0.11206591  0.27589088     0.20800
C932        C  0.44082355  0.10224859  0.25723281     0.25900
C933        C  0.45161342  0.09547384  0.28069618    -0.22100
C934        C  0.45366097  0.09934711  0.32299116     0.20800
F935        F  0.46432671  0.09328648  0.34637059    -0.12100
F936        F  0.44663851  0.11259831  0.38255505    -0.14400
F937        F  0.43841823  0.09855553  0.21648503    -0.14400
F938        F  0.42085349  0.11795766  0.25234447    -0.12100
C939        C  0.52502561  0.06284951  0.39641212     0.25900
C940        C  0.54605947  0.07569783  0.39061101    -0.22200
C941        C  0.55296229  0.08682608  0.35421149     0.20800
C942        C  0.53918863  0.08432676  0.32339229     0.25900
C943        C  0.51829058  0.07047871  0.32829619    -0.22100
C944        C  0.51134385  0.06015046  0.36549505     0.20800
F945        F  0.49125416  0.04736610  0.37208407    -0.12100
F946        F  0.51760069  0.05253886  0.43190248    -0.14400
F947        F  0.54646596  0.09481770  0.28806552    -0.14400
F948        F  0.57308639  0.09934659  0.34750555    -0.12100
C949        C  0.53601735  0.08547662  0.12328751     0.25900
C950        C  0.52002537  0.06672099  0.13636253    -0.22200
C951        C  0.51822026  0.04886723  0.11995080     0.20800
C952        C  0.53205923  0.04972613  0.09096890     0.25900
C953        C  0.54805320  0.06846913  0.07760819    -0.22100
C954        C  0.54991483  0.08636830  0.09416525     0.20800
F955        F  0.56526053  0.10477915  0.08247994    -0.12100
F956        F  0.53851725  0.10293910  0.13943368    -0.14400
F957        F  0.52936170  0.03212472  0.07514900    -0.14400
F958        F  0.50266983  0.03045658  0.13111233    -0.12100
C959        C  0.34269031  0.90763222  0.46274025     0.25900
C960        C  0.35193277  0.89614122  0.47185626    -0.22200
C961        C  0.34235115  0.87581962  0.45919122     0.20800
C962        C  0.32376110  0.86711733  0.43833503     0.25900
C963        C  0.31423899  0.87848145  0.43041405    -0.22100
C964        C  0.32401295  0.89887431  0.44264749     0.20800
F965        F  0.31554310  0.91047551  0.43496028    -0.12100
F966        F  0.35153094  0.92734458  0.47408256    -0.14400
F967        F  0.31480308  0.84740645  0.42701900    -0.14400
F968        F  0.35116806  0.86448620  0.46622284    -0.12100
C969        C  0.45123824  0.90917595  0.42285225     0.25900
C970        C  0.44887190  0.92614123  0.42945195    -0.22200
C971        C  0.46033465  0.94355571  0.40565788     0.20800
C972        C  0.47387067  0.94410226  0.37631925     0.25900
C973        C  0.47626887  0.92720666  0.36973775    -0.22100
C974        C  0.46484625  0.90974673  0.39335455     0.20800
F975        F  0.46671130  0.89315943  0.38777079    -0.12100
F976        F  0.44063378  0.89206353  0.44526764    -0.14400
F977        F  0.48507110  0.96152601  0.35510755    -0.14400
F978        F  0.45867625  0.96027864  0.41088970    -0.12100
C979        C  0.47060761  0.94170310  0.12326299     0.25900
C980        C  0.45187266  0.92359947  0.11864384    -0.22200
C981        C  0.44767023  0.90708162  0.14386029     0.20800
C982        C  0.46195390  0.90862006  0.17275173     0.25900
C983        C  0.48063524  0.92683271  0.17737661    -0.22100
C984        C  0.48477221  0.94324239  0.15198196     0.20800
F985        F  0.50243626  0.96109691  0.15530344    -0.12100
F986        F  0.47515450  0.95837986  0.10082508    -0.14400
F987        F  0.45726525  0.89233799  0.19661722    -0.14400
F988        F  0.42973872  0.88948232  0.14083226    -0.12100
C989        C  0.41886661  0.97064530  0.15123243     0.25900
C990        C  0.41614530  0.97341687  0.10969636    -0.22200
C991        C  0.41970781  0.99243214  0.09678422     0.20800
C992        C  0.42728978  0.00872804  0.12413102     0.25900
C993        C  0.43188711  0.00644066  0.16486416    -0.22100
C994        C  0.42673223  0.98696848  0.17844868     0.20800
F995        F  0.43047837  0.98386915  0.21748532    -0.12100
F996        F  0.41560312  0.95249500  0.16493150    -0.14400
F997        F  0.43130507  0.02703100  0.10983550    -0.14400
F998        F  0.41654052  0.99545390  0.05728929    -0.12100
C999        C  0.87089561  0.32137818  0.30747514     0.25900
C1000       C  0.88236707  0.31222688  0.31747315    -0.22200
C1001       C  0.90305186  0.32211887  0.30705033     0.20800
C1002       C  0.91210706  0.34076825  0.28704577     0.25900
C1003       C  0.90057704  0.34976298  0.27610687    -0.22100
C1004       C  0.87987019  0.33988609  0.28658410     0.20800
F1005       F  0.86839189  0.34832618  0.27739000    -0.12100
F1006       F  0.85083102  0.31208177  0.31666545    -0.14400
F1007       F  0.93215276  0.34984456  0.27773007    -0.14400
F1008       F  0.91461383  0.31378347  0.31649959    -0.12100
C1009       C  0.99138426  0.23270546  0.12040157     0.25900
C1010       C  0.98239151  0.21235515  0.10805761    -0.22200
C1011       C  0.99314425  0.20204216  0.11402504     0.20800
C1012       C  0.01226567  0.21176098  0.13281546     0.25900
C1013       C  0.02111420  0.23205776  0.14538594    -0.22100
C1014       C  0.01054337  0.24245603  0.13852837     0.20800
F1015       F  0.01865750  0.26210710  0.14982310    -0.12100
F1016       F  0.98175305  0.24336872  0.11447465    -0.14400
F1017       F  0.02236850  0.20149197  0.13757824    -0.14400
F1018       F  0.98501830  0.18244356  0.10240997    -0.12100
C1019       C  0.90442959  0.23668986  0.00472092     0.25900
C1020       C  0.91236773  0.22500377  0.48876431    -0.22200
C1021       C  0.91360977  0.22369282  0.44600073     0.20800
C1022       C  0.90537988  0.23222182  0.42004239     0.25900
C1023       C  0.89588713  0.24244434  0.43610041    -0.22100
C1024       C  0.89641879  0.24545100  0.47870420     0.20800
F1025       F  0.88808551  0.25582142  0.49561855    -0.12100
F1026       F  0.90360365  0.23896529  0.04566652    -0.14400
F1027       F  0.90580577  0.22951069  0.37915819    -0.14400
F1028       F  0.92152585  0.21295679  0.42903800    -0.12100
C1029       C  0.87100777  0.11515640  0.20691450     0.25900
C1030       C  0.85639208  0.11894242  0.22433512    -0.22200
C1031       C  0.85612142  0.13656291  0.21279492     0.20800
C1032       C  0.86983928  0.14984625  0.18393624     0.25900
C1033       C  0.88428718  0.14594815  0.16588812    -0.22100
C1034       C  0.88485311  0.12853131  0.17808689     0.20800
F1035       F  0.89879562  0.12435467  0.16216725    -0.12100
F1036       F  0.87215052  0.09869249  0.21826402    -0.14400
F1037       F  0.86849937  0.16624400  0.17289282    -0.14400
F1038       F  0.84214184  0.14074649  0.22855123    -0.12100
C1039       C  0.87179064  0.11572856  0.41589515     0.25900
C1040       C  0.85183441  0.11247206  0.41548967    -0.22200
C1041       C  0.84601638  0.12138734  0.44607308     0.20800
C1042       C  0.85979767  0.13360132  0.47577377     0.25900
C1043       C  0.87998949  0.13752420  0.47553994    -0.22100
C1044       C  0.88576344  0.12823141  0.44550145     0.20800
F1045       F  0.90499408  0.13153185  0.44411502    -0.12100
F1046       F  0.87806614  0.10739407  0.38685282    -0.14400
F1047       F  0.85326339  0.14191834  0.50433862    -0.14400
F1048       F  0.82692733  0.11847146  0.44725536    -0.12100
C1049       C  0.67164068  0.10076452  0.07130223     0.25900
C1050       C  0.68354720  0.12192831  0.07216471    -0.22200
C1051       C  0.67609471  0.13353956  0.05390123     0.20800
C1052       C  0.65730246  0.12404282  0.03378256     0.25900
C1053       C  0.64551425  0.10278109  0.03239673    -0.22100
C1054       C  0.65282135  0.09130078  0.05196425     0.20800
F1055       F  0.64200666  0.07077797  0.55157771    -0.12100
F1056       F  0.67826892  0.08913936  0.08924065    -0.14400
F1057       F  0.65067669  0.13564707  0.01579145    -0.14400
F1058       F  0.68738425  0.15403456  0.05394190    -0.12100
C1059       C  0.79586891  0.21662510  0.25727821     0.25900
C1060       C  0.81536319  0.21884266  0.26003517    -0.22200
C1061       C  0.82101870  0.20889879  0.23136109     0.20800
C1062       C  0.80738912  0.19663658  0.20135517     0.25900
C1063       C  0.78765701  0.19390405  0.19935541    -0.22100
C1064       C  0.78217408  0.20425736  0.22735838     0.20800
F1065       F  0.76340558  0.20214786  0.22644750    -0.12100
F1066       F  0.78968406  0.22588019  0.28436408    -0.14400
F1067       F  0.81348079  0.18700831  0.17498983    -0.14400
F1068       F  0.83967534  0.21073688  0.23256730    -0.12100
C1069       C  0.80405373  0.19123709  0.45431261     0.25900
C1070       C  0.80740088  0.21106221  0.45009631    -0.22200
C1071       C  0.79645605  0.21715580  0.47509771     0.20800
C1072       C  0.78276977  0.20392164  0.50408832     0.25900
C1073       C  0.77981735  0.18428446  0.50905771    -0.22100
C1074       C  0.79044306  0.17803785  0.98341582     0.20800
F1075       F  0.78807283  0.15928090  0.98695448    -0.12100
F1076       F  0.81436511  0.18465356  0.43109400    -0.14400
F1077       F  0.77283966  0.21066532  0.52802044    -0.14400
F1078       F  0.79914346  0.23604734  0.47200846    -0.12100
C1079       C  0.76119843  0.09560112  0.17496696     0.25900
C1080       C  0.75272887  0.10690119  0.19032457    -0.22200
C1081       C  0.75106737  0.10812673  0.23303903     0.20800
C1082       C  0.75931216  0.09976442  0.25956609     0.25900
C1083       C  0.76916533  0.08977442  0.24403341    -0.22100
C1084       C  0.76922955  0.08707774  0.20142383     0.20800
F1085       F  0.77836147  0.07739705  0.18486910    -0.12100
F1086       F  0.76265834  0.09357704  0.13411456    -0.14400
F1087       F  0.75838478  0.10224071  0.30041125    -0.14400
F1088       F  0.74263240  0.11852983  0.24935299    -0.12100
C1089       C  0.54659977  0.67413931  0.46220881     0.25900
C1090       C  0.56678491  0.68310922  0.44845555    -0.22200
C1091       C  0.57793873  0.67342672  0.45634498     0.20800
C1092       C  0.56901966  0.65493794  0.47679328     0.25900
C1093       C  0.54880453  0.64582463  0.49041847    -0.22100
C1094       C  0.53773187  0.65572945  0.48343238     0.20800
F1095       F  0.51819782  0.64738259  0.49617669    -0.12100
F1096       F  0.53565215  0.68346205  0.45612817    -0.14400
F1097       F  0.58029887  0.64601804  0.48354451    -0.14400
F1098       F  0.59746977  0.68171633  0.44360386    -0.12100
C1099       C  0.75301225  0.76375281  0.14250561     0.25900
C1100       C  0.76392594  0.78484932  0.14767116    -0.22200
C1101       C  0.78390125  0.79585694  0.13270483     0.20800
C1102       C  0.79282735  0.78590885  0.11311973     0.25900
C1103       C  0.78204825  0.76471208  0.10887461    -0.22100
C1104       C  0.76199210  0.75379359  0.12360708     0.20800
F1105       F  0.75086384  0.73340266  0.11918951    -0.12100
F1106       F  0.73364072  0.75265787  0.15626821    -0.14400
F1107       F  0.81211828  0.79700284  0.09899396    -0.14400
F1108       F  0.79455662  0.81631964  0.13584784    -0.12100
C1109       C  0.68619270  0.77736006  0.31275398     0.25900
C1110       C  0.68331102  0.77490668  0.27015003    -0.22200
C1111       C  0.66360236  0.76227103  0.25519730     0.20800
C1112       C  0.64701957  0.75330799  0.28194267     0.25900
C1113       C  0.64972323  0.75688785  0.32439290    -0.22100
C1114       C  0.66961144  0.76852782  0.33949735     0.20800
F1115       F  0.67305545  0.77217080  0.38010750    -0.12100
F1116       F  0.70495350  0.78939091  0.32866858    -0.14400
F1117       F  0.62819303  0.74203595  0.26579179    -0.14400
F1118       F  0.66023131  0.75907561  0.21446863    -0.12100
C1119       C  0.56679144  0.90969530  0.21431856     0.25900
C1120       C  0.54709167  0.89980360  0.23090510    -0.22200
C1121       C  0.53516550  0.87862674  0.22725233     0.20800
C1122       C  0.54287771  0.86757967  0.20772904     0.25900
C1123       C  0.56276738  0.87748102  0.19225871    -0.22100
C1124       C  0.57458051  0.89863139  0.19553946     0.20800
F1125       F  0.59369906  0.90867321  0.18008766    -0.12100
F1126       F  0.57871201  0.93010386  0.21674549    -0.14400
F1127       F  0.53113434  0.84716492  0.20517255    -0.14400
F1128       F  0.51589257  0.86862875  0.24187072    -0.12100
C1129       C  0.60542580  0.80013800  0.05547141     0.25900
C1130       C  0.58706627  0.80000846  0.06182940    -0.22200
C1131       C  0.56998994  0.78678003  0.03868484     0.20800
C1132       C  0.57141474  0.77422608  0.50921503     0.25900
C1133       C  0.59001345  0.77481126  0.00222952    -0.22100
C1134       C  0.60687239  0.78773929  0.02617179     0.20800
F1135       F  0.62507751  0.78888926  0.02068528    -0.12100
F1136       F  0.62243765  0.81291328  0.07659279    -0.14400
F1137       F  0.55465113  0.76181198  0.48707957    -0.14400
F1138       F  0.55193861  0.78590967  0.04461232    -0.12100
C1139       C  0.57180625  0.78738572  0.25456277     0.25900
C1140       C  0.58714392  0.80793897  0.25374814    -0.22200
C1141       C  0.60191645  0.81529080  0.28456631     0.20800
C1142       C  0.60186304  0.80233825  0.31456213     0.25900
C1143       C  0.58719627  0.78154056  0.31418269    -0.22100
C1144       C  0.57189895  0.77430447  0.28436191     0.20800
F1145       F  0.55725658  0.75450038  0.28339360    -0.12100
F1146       F  0.55716411  0.77965515  0.22548708    -0.14400
F1147       F  0.61670455  0.81022726  0.34325376    -0.14400
F1148       F  0.61671089  0.83503854  0.28548853    -0.12100
C1149       C  0.78371977  0.99046193  0.39277528     0.25900
C1150       C  0.76270768  0.98013063  0.40075847    -0.22200
C1151       C  0.75131725  0.98906933  0.38836401     0.20800
C1152       C  0.76068985  0.00791472  0.36891895     0.25900
C1153       C  0.78164146  0.01820657  0.36084522    -0.22100
C1154       C  0.79303833  0.00919823  0.37257024     0.20800
F1155       F  0.81331498  0.01877884  0.36543620    -0.12100
F1156       F  0.79520350  0.98224384  0.40364611    -0.14400
F1157       F  0.74913599  0.01593670  0.35721901    -0.14400
F1158       F  0.73104281  0.97966660  0.39547382    -0.12100
C1159       C  0.75727433  0.88667534  0.05736902     0.25900
C1160       C  0.74375849  0.87932541  0.02425329    -0.22200
C1161       C  0.73057538  0.85823952  0.02064099     0.20800
C1162       C  0.72932018  0.84517088  0.05172562     0.25900
C1163       C  0.74163923  0.85275639  0.08643368    -0.22100
C1164       C  0.75630259  0.87350227  0.08805922     0.20800
F1165       F  0.76896211  0.88131637  0.12053125    -0.12100
F1166       F  0.77089558  0.90670876  0.06105995    -0.14400
F1167       F  0.71580041  0.82510165  0.04807086    -0.14400
F1168       F  0.71825836  0.85019944  0.48773740    -0.12100
C1169       C  0.72102114  0.86444170  0.28147659     0.25900
C1170       C  0.73795673  0.86167801  0.27827333    -0.22200
C1171       C  0.75446273  0.87258700  0.30466877     0.20800
C1172       C  0.75383752  0.88550164  0.33420813     0.25900
C1173       C  0.73646517  0.88743533  0.33867848    -0.22100
C1174       C  0.72024924  0.87703536  0.31146344     0.20800
F1175       F  0.70340198  0.87875251  0.31415598    -0.12100
F1176       F  0.70476110  0.85446314  0.25645050    -0.14400
F1177       F  0.77004731  0.89555125  0.35932909    -0.14400
F1178       F  0.77113513  0.87055888  0.30246995    -0.12100
C1179       C  0.68143838  0.90124365  0.06636499     0.25900
C1180       C  0.67923508  0.90314464  0.02413499    -0.22200
C1181       C  0.65982628  0.89755048  0.00907839     0.20800
C1182       C  0.64295027  0.88950372  0.03530933     0.25900
C1183       C  0.64498106  0.88628514  0.07706546    -0.22100
C1184       C  0.66457849  0.89294616  0.09241426     0.20800
F1185       F  0.66744895  0.89067512  0.13251360    -0.12100
F1186       F  0.69978637  0.90624110  0.08236568    -0.14400
F1187       F  0.62451949  0.88423067  0.01934985    -0.14400
F1188       F  0.65705119  0.89945532  0.46875940    -0.12100
O1189       O  0.71795933  0.89743911  0.88389157    -0.55500
C1190       C  0.69689855  0.90957403  0.99616162     0.77200
O1191       O  0.75167723  0.91251717  0.99996066    -0.56600
C1192       C  0.73473443  0.89893592  0.87340198     0.77100
C1193       C  0.75234210  0.95952754  0.91901223     0.79500
Cd1194     Cd  0.73175783  0.91788350  0.94626099     1.37500
O1195       O  0.69487707  0.90520644  0.95837371    -0.55500
O1196       O  0.73385215  0.94716421  0.91160888    -0.54300
C1197       C  0.74150169  0.89334038  0.99633151     0.79500
O1198       O  0.76137750  0.95307351  0.94170068    -0.56700
O1199       O  0.71493786  0.91903358  0.00937438    -0.55100
O1200       O  0.74993014  0.91015877  0.89535699    -0.55100
O1201       O  0.72813649  0.88644497  0.96874579    -0.54300
O1202       O  0.60475881  0.83760794  0.71139630    -0.55500
C1203       C  0.62677146  0.87389216  0.60312259     0.77200
O1204       O  0.57378198  0.82023752  0.59135879    -0.56600
C1205       C  0.58849418  0.82125633  0.71956709     0.77100
C1206       C  0.57199086  0.86597379  0.67575843     0.79500
Cd1207     Cd  0.59174052  0.84460212  0.64853010     1.37500
O1208       O  0.62822602  0.86889326  0.63941830    -0.55500
O1209       O  0.59044939  0.87184654  0.68266303    -0.54300
C1210       C  0.58655582  0.81411392  0.59210482     0.79500
O1211       O  0.56215776  0.84991674  0.65478218    -0.56700
O1212       O  0.60890138  0.86663453  0.58942117    -0.55100
O1213       O  0.57360948  0.81652641  0.69606123    -0.55100
O1214       O  0.59988266  0.82131497  0.61971532    -0.54300
O1215       O  0.69760067  0.79062743  0.70510153    -0.55500
C1216       C  0.73867038  0.83944972  0.62164527     0.77200
O1217       O  0.75093129  0.84124045  0.74862964    -0.56600
C1218       C  0.70041788  0.78719935  0.74185752     0.77100
C1219       C  0.75385865  0.79531888  0.66565806     0.79500
Cd1220     Cd  0.73353082  0.81613986  0.69330306     1.37500
O1221       O  0.72180703  0.82349716  0.62886295    -0.55500
O1222       O  0.73519531  0.78879477  0.65941856    -0.54300
C1223       C  0.73777266  0.84688889  0.74859526     0.79500
O1224       O  0.76329460  0.81129092  0.68706982    -0.56700
O1225       O  0.75282742  0.84388069  0.64691829    -0.55100
O1226       O  0.71864839  0.79581627  0.75406404    -0.55100
O1227       O  0.72383282  0.83880723  0.72221427    -0.54300
O1228       O  0.63363641  0.75703993  0.88810572    -0.55500
C1229       C  0.59229016  0.76318929  0.96843216     0.77200
O1230       O  0.57792981  0.74847743  0.84166414    -0.56600
C1231       C  0.63187535  0.75058542  0.85170228     0.77100
C1232       C  0.57682944  0.70320371  0.92885881     0.79500
Cd1233     Cd  0.59685573  0.74368332  0.89828883     1.37500
O1234       O  0.60923108  0.76461755  0.95974540    -0.55500
O1235       O  0.59529672  0.71576228  0.93601751    -0.54300
C1236       C  0.58891156  0.76767292  0.84339117     0.79500
O1237       O  0.56756385  0.70893488  0.90501204    -0.56700
O1238       O  0.57748752  0.75183794  0.94568718    -0.55100
O1239       O  0.61391445  0.73940650  0.83894968    -0.55100
O1240       O  0.60226920  0.77473632  0.87097523    -0.54300
O1241       O  0.76556613  0.15427381  0.55122786    -0.55500
C1242       C  0.74822377  0.11947930  0.66247402     0.77200
O1243       O  0.75419046  0.17468988  0.66904477    -0.56600
C1244       C  0.76699821  0.17117455  0.54284325     0.77100
C1245       C  0.70438359  0.13146147  0.58846810     0.79500
Cd1246     Cd  0.74575160  0.14932538  0.61419020     1.37500
O1247       O  0.75438248  0.12279975  0.62564824    -0.55500
O1248       O  0.71503767  0.12323475  0.58286893    -0.54300
C1249       C  0.77281126  0.17952720  0.66951007     0.79500
O1250       O  0.71263542  0.14812295  0.60778413    -0.56700
O1251       O  0.73919570  0.12857172  0.67504477    -0.55100
O1252       O  0.75749415  0.17680516  0.56605448    -0.55100
O1253       O  0.77822650  0.17093870  0.64353431    -0.54300
O1254       O  0.82140078  0.10138315  0.87577040    -0.55500
C1255       C  0.78158335  0.08453463  0.77087754     0.77200
O1256       O  0.83631160  0.08637924  0.75764797    -0.56600
C1257       C  0.83747104  0.10068507  0.88239002     0.77100
C1258       C  0.79164477  0.03882757  0.84299737     0.79500
Cd1259     Cd  0.81181791  0.08013134  0.81426953     1.37500
O1260       O  0.78689747  0.09174856  0.80667518    -0.55500
O1261       O  0.78570744  0.05111762  0.85213874    -0.54300
C1262       C  0.84158967  0.10501129  0.75486182     0.79500
O1263       O  0.80668297  0.04530363  0.81877690    -0.56700
O1264       O  0.78867858  0.07371024  0.75790444    -0.55100
O1265       O  0.84088296  0.08971420  0.85854656    -0.55100
O1266       O  0.83334425  0.11139865  0.77960303    -0.54300
O1267       O  0.89874774  0.17584064  0.62347162    -0.55500
C1268       C  0.91696127  0.21225966  0.51594384     0.77200
O1269       O  0.95469723  0.18625920  0.56867057    -0.56600
C1270       C  0.89766014  0.15918852  0.63266913     0.77100
C1271       C  0.89470008  0.15203658  0.50552000     0.79500
Cd1272     Cd  0.92025413  0.18226620  0.56276528     1.37500
O1273       O  0.91070439  0.20843922  0.55263231    -0.55500
O1274       O  0.88888657  0.16037529  0.53121311    -0.54300
C1275       C  0.96153639  0.20192429  0.59105645     0.79500
O1276       O  0.91341691  0.15723004  0.50664662    -0.56700
O1277       O  0.92624533  0.20352844  0.50282287    -0.55100
O1278       O  0.90807955  0.15406371  0.61090866    -0.55100
O1279       O  0.94943459  0.20826550  0.59891808    -0.54300
O1280       O  0.87889686  0.24097328  0.87298008    -0.55500
C1281       C  0.82916525  0.23053898  0.79393157     0.77200
O1282       O  0.82815376  0.24397388  0.91885259    -0.56600
C1283       C  0.88318312  0.24737605  0.90951024     0.77100
C1284       C  0.87262316  0.29176305  0.83560109     0.79500
Cd1285     Cd  0.85312457  0.25085038  0.86389484     1.37500
O1286       O  0.84522539  0.23002218  0.80181269    -0.55500
O1287       O  0.87881586  0.27967040  0.82660521    -0.54300
C1288       C  0.82256767  0.22523502  0.92040898     0.79500
O1289       O  0.85756320  0.28521768  0.85978467    -0.56700
O1290       O  0.82511726  0.24118285  0.81741643    -0.55100
O1291       O  0.87488264  0.25701038  0.92303111    -0.55100
O1292       O  0.83088090  0.21904474  0.89536799    -0.54300
O1293       O  0.43468931  0.94186753  0.97173103    -0.55500
C1294       C  0.41228812  0.95727930  0.57982104     0.77200
O1295       O  0.37744917  0.89612743  0.51598217    -0.56600
C1296       C  0.43532496  0.92606943  0.96214226     0.77100
C1297       C  0.43716926  0.92264881  0.58777401     0.79500
Cd1298     Cd  0.41147764  0.92623980  0.52938579     1.37500
O1299       O  0.41946915  0.96126550  0.54374527    -0.55500
O1300       O  0.44296167  0.93642548  0.56119030    -0.54300
C1301       C  0.37186447  0.90580631  0.99284675     0.79500
O1302       O  0.41853379  0.90878656  0.58655335    -0.56700
O1303       O  0.40294757  0.93880993  0.59017544    -0.55100
O1304       O  0.42410343  0.91027567  0.98267598    -0.55100
O1305       O  0.38430634  0.92449160  0.98822637    -0.54300
O1306       O  0.45225660  0.02340400  0.72433682    -0.55500
C1307       C  0.50386977  0.06667425  0.79471505     0.77200
O1308       O  0.50089834  0.07911031  0.67318508    -0.56600
C1309       C  0.44481798  0.02456641  0.69043283     0.77100
C1310       C  0.45986615  0.08354083  0.76178886     0.79500
Cd1311     Cd  0.47670360  0.06021749  0.72917120     1.37500
O1312       O  0.48668900  0.05054486  0.79264265    -0.55500
O1313       O  0.45915998  0.06875084  0.78053922    -0.54300
C1314       C  0.50553174  0.06542057  0.66785755     0.79500
O1315       O  0.46786804  0.08738937  0.72644539    -0.56700
O1316       O  0.50819796  0.07943171  0.76634971    -0.55100
O1317       O  0.45040136  0.04224495  0.67779171    -0.55100
O1318       O  0.49702050  0.05015796  0.69100298    -0.54300
O1319       O  0.51118371  0.94595925  0.71712737    -0.55500
C1320       C  0.55085218  0.96938473  0.82137867     0.77200
O1321       O  0.49808955  0.91651458  0.83798424    -0.56600
C1322       C  0.49507941  0.92923601  0.71024165     0.77100
C1323       C  0.53867700  0.91165480  0.74966770     0.79500
Cd1324     Cd  0.52049410  0.93420227  0.77876966     1.37500
O1325       O  0.54531506  0.97087154  0.78557433    -0.55500
O1326       O  0.54542121  0.92999304  0.74017798    -0.54300
C1327       C  0.49075605  0.92824218  0.83839808     0.79500
O1328       O  0.52411607  0.90397410  0.77506900    -0.56700
O1329       O  0.54381281  0.95159645  0.83495960    -0.55100
O1330       O  0.49158523  0.91479397  0.73393952    -0.55100
O1331       O  0.49672127  0.94147487  0.81063897    -0.54300
O1332       O  0.56268172  0.05371821  0.53405282    -0.55500
C1333       C  0.58442310  0.03824952  0.92843546     0.77200
O1334       O  0.57917402  0.08886973  0.92210143    -0.56600
C1335       C  0.56187593  0.06925887  0.54490155     0.77100
C1336       C  0.62548239  0.09230365  0.51184893     0.79500
Cd1337     Cd  0.58576835  0.07028724  0.97677925     1.37500
O1338       O  0.57762497  0.03520645  0.96473665    -0.55500
O1339       O  0.61278584  0.07409004  0.52035882    -0.54300
C1340       C  0.56041134  0.07548335  0.92063587     0.79500
O1341       O  0.62003745  0.10075248  0.98528658    -0.56700
O1342       O  0.59369366  0.05645871  0.91642866    -0.55100
O1343       O  0.57304763  0.08541582  0.52537524    -0.55100
O1344       O  0.55428878  0.06099501  0.94558761    -0.54300
O1345       O  0.78395861  0.69579039  0.54988250    -0.55500
C1346       C  0.83359035  0.73305633  0.63268533     0.77200
O1347       O  0.83602395  0.74916603  0.50794823    -0.56600
C1348       C  0.78092782  0.69905171  0.51320048     0.77100
C1349       C  0.79177008  0.75373007  0.59137681     0.79500
Cd1350     Cd  0.81050628  0.73137785  0.56265953     1.37500
O1351       O  0.81718131  0.71697515  0.62378670    -0.55500
O1352       O  0.78557531  0.73551324  0.60105005    -0.54300
C1353       C  0.84126249  0.73574297  0.50694560     0.79500
O1354       O  0.80670502  0.76187539  0.56680531    -0.56700
O1355       O  0.83837352  0.74829887  0.61031715    -0.55100
O1356       O  0.78986805  0.71735358  0.50185579    -0.55100
O1357       O  0.83288895  0.72159465  0.53270554    -0.54300
O1358       O  0.75717725  0.63512371  0.86488031    -0.55500
C1359       C  0.76935818  0.59550899  0.78708000     0.77200
O1360       O  0.75682703  0.58163699  0.90903599    -0.56600
C1361       C  0.74990792  0.63248167  0.90080555     0.77100
C1362       C  0.70837570  0.57549278  0.82596442     0.79500
Cd1363     Cd  0.74875626  0.59958679  0.85609633     1.37500
O1364       O  0.76917768  0.61185934  0.79323658    -0.55500
O1365       O  0.72119204  0.59217186  0.81003047    -0.54300
C1366       C  0.77518884  0.59583809  0.91222468     0.79500
O1367       O  0.71389370  0.57017492  0.85799509    -0.56700
O1368       O  0.75963037  0.58134410  0.81235159    -0.55100
O1369       O  0.74045966  0.61440488  0.91351569    -0.55100
O1370       O  0.78070155  0.61095576  0.88911425    -0.54300
O1371       O  0.89330623  0.71545947  0.87507495    -0.55500
C1372       C  0.91070761  0.69448760  0.76781897     0.77200
O1373       O  0.90672677  0.74658245  0.75798043    -0.56600
C1374       C  0.89249778  0.73147349  0.88115181     0.77100
C1375       C  0.95462394  0.75133165  0.84102355     0.79500
Cd1376     Cd  0.91364339  0.72816716  0.81222967     1.37500
O1377       O  0.90326291  0.69213557  0.80348920    -0.55500
O1378       O  0.94142545  0.73505335  0.85768031    -0.54300
C1379       C  0.88797572  0.73325965  0.75609155     0.79500
O1380       O  0.94914686  0.75689824  0.80930979    -0.56700
O1381       O  0.92098529  0.71251851  0.75522803    -0.55100
O1382       O  0.90217820  0.74584688  0.85625076    -0.55100
O1383       O  0.88185048  0.71854994  0.78051669    -0.54300
O1384       O  0.84559507  0.61133923  0.54564609    -0.55500
C1385       C  0.88003837  0.62765394  0.65608479     0.77200
O1386       O  0.82533412  0.57702982  0.66010623    -0.56600
C1387       C  0.82967213  0.59531729  0.53446470     0.77100
C1388       C  0.87143145  0.57452238  0.57656959     0.79500
Cd1389     Cd  0.85134364  0.59555485  0.60574459     1.37500
O1390       O  0.87701216  0.63096957  0.61946348    -0.55500
O1391       O  0.87805031  0.59311777  0.56996898    -0.54300
C1392       C  0.81974437  0.59019427  0.66079406     0.79500
O1393       O  0.85550347  0.56539985  0.59837213    -0.56700
O1394       O  0.87150149  0.60932422  0.66718938    -0.55100
O1395       O  0.82487807  0.57952717  0.55501500    -0.55100
O1396       O  0.82811860  0.60438254  0.63515384    -0.54300
O1397       O  0.43432263  0.48800515  0.72334497    -0.55500
C1398       C  0.42043349  0.45182874  0.83058720     0.77200
O1399       O  0.42070152  0.50463845  0.84476278    -0.56600
C1400       C  0.43566620  0.50505685  0.71739225     0.77100
C1401       C  0.37310019  0.46116790  0.75634987     0.79500
Cd1402     Cd  0.41437540  0.48087948  0.78649697     1.37500
O1403       O  0.42661603  0.45669002  0.79406122    -0.55500
O1404       O  0.38527021  0.45482538  0.74924418    -0.54300
C1405       C  0.43974890  0.51125281  0.84381648     0.79500
O1406       O  0.37962041  0.47649097  0.77964881    -0.56700
O1407       O  0.40980519  0.45892596  0.84476091    -0.55100
O1408       O  0.42634359  0.51013026  0.74238860    -0.55100
O1409       O  0.44606104  0.50437686  0.81592353    -0.54300
O1410       O  0.49104731  0.43060703  0.53693533    -0.55500
C1411       C  0.45417636  0.41458029  0.93301501     0.77200
O1412       O  0.50711752  0.41491256  0.91831466    -0.56600
C1413       C  0.50746077  0.43085748  0.54503257     0.77100
C1414       C  0.46466188  0.36856217  0.50854771     0.79500
Cd1415     Cd  0.48352403  0.40911066  0.97661882     1.37500
O1416       O  0.45867944  0.42051358  0.96972692    -0.55500
O1417       O  0.45806222  0.38054595  0.51508688    -0.54300
C1418       C  0.51377195  0.43389616  0.91837497     0.79500
O1419       O  0.47985230  0.37491733  0.98477583    -0.56700
O1420       O  0.46134582  0.40401354  0.91891358    -0.55100
O1421       O  0.51192233  0.42023948  0.52240704    -0.55100
O1422       O  0.50694715  0.44047405  0.94584687    -0.54300
O1423       O  0.54574632  0.57423336  0.54502190    -0.55500
C1424       C  0.49598909  0.56391442  0.96692585     0.77200
O1425       O  0.49567856  0.57846239  0.59299291    -0.56600
C1426       C  0.54982357  0.58015179  0.58185365     0.77100
C1427       C  0.53910665  0.62539394  0.00869821     0.79500
Cd1428     Cd  0.51993088  0.58450298  0.53683753     1.37500
O1429       O  0.51208713  0.56354323  0.97519828    -0.55500
O1430       O  0.54533150  0.61333413  0.99971380    -0.54300
C1431       C  0.48893720  0.55947430  0.59300544     0.79500
O1432       O  0.52408780  0.61882019  0.53296391    -0.56700
O1433       O  0.49190993  0.57471755  0.98986301    -0.55100
O1434       O  0.54143643  0.58959774  0.59589735    -0.55100
O1435       O  0.49628459  0.55290308  0.56657198    -0.54300
O1436       O  0.57811674  0.53946688  0.72008337    -0.55500
C1437       C  0.56690125  0.48879740  0.79390586     0.77200
O1438       O  0.58104667  0.48802370  0.67182547    -0.56600
C1439       C  0.58518124  0.54504844  0.68429781     0.77100
C1440       C  0.62884342  0.53142971  0.75473564     0.79500
Cd1441     Cd  0.58832769  0.51366809  0.72561528     1.37500
O1442       O  0.56806030  0.50575949  0.78778115    -0.55500
O1443       O  0.61504862  0.53268894  0.77362770    -0.54300
C1444       C  0.56279038  0.48410902  0.66805649     0.79500
O1445       O  0.62410617  0.52197861  0.72094047    -0.56700
O1446       O  0.57631085  0.48380930  0.76886236    -0.55100
O1447       O  0.59557623  0.53771552  0.67013316    -0.55100
O1448       O  0.55723168  0.49363312  0.69123536    -0.54300
O1449       O  0.15439469  0.76615989  0.69448101    -0.55500
C1450       C  0.11550932  0.74755453  0.59074927     0.77200
O1451       O  0.17224187  0.75152796  0.57822442    -0.56600
C1452       C  0.17131268  0.76722955  0.70147580     0.77100
C1453       C  0.13159461  0.70467881  0.66509563     0.79500
Cd1454     Cd  0.14706970  0.74481031  0.63341309     1.37500
O1455       O  0.12063598  0.75435712  0.62676701    -0.55500
O1456       O  0.12833789  0.71772757  0.68167230    -0.54300
C1457       C  0.17855295  0.77042293  0.57791255     0.79500
O1458       O  0.14152391  0.70976532  0.63182070    -0.56700
O1459       O  0.12342623  0.73767527  0.57675630    -0.55100
O1460       O  0.17612141  0.75712726  0.67804309    -0.55100
O1461       O  0.17039127  0.77661538  0.60325906    -0.54300
O1462       O  0.09710076  0.82060460  0.88379715    -0.55500
C1463       C  0.07904850  0.78126495  0.98733485     0.77200
O1464       O  0.08109255  0.83659318  0.99969971    -0.56600
C1465       C  0.09800351  0.83744716  0.87752597     0.77100
C1466       C  0.03485352  0.79384871  0.91145869     0.79500
Cd1467     Cd  0.07526231  0.81188347  0.94398592     1.37500
O1468       O  0.08565005  0.78606597  0.95104489    -0.55500
O1469       O  0.04895641  0.79260252  0.89383135    -0.54300
C1470       C  0.09985079  0.84208626  0.00216481     0.79500
O1471       O  0.03923532  0.80339833  0.94513270    -0.56700
O1472       O  0.06879445  0.78885671  0.00094192    -0.55100
O1473       O  0.08777243  0.84192855  0.90144643    -0.55100
O1474       O  0.10625790  0.83383364  0.97753935    -0.54300
O1475       O  0.24140375  0.87506527  0.87571857    -0.55500
C1476       C  0.23189342  0.82556617  0.95450694     0.77200
O1477       O  0.24549742  0.82621047  0.82613422    -0.56600
C1478       C  0.24769406  0.87944141  0.83909963     0.77100
C1479       C  0.29360763  0.86893445  0.91234877     0.79500
Cd1480     Cd  0.25220107  0.84972819  0.88429230     1.37500
O1481       O  0.23212024  0.84204655  0.94768051    -0.55500
O1482       O  0.28173769  0.87551286  0.92072215    -0.54300
C1483       C  0.22653844  0.82000652  0.82609798     0.79500
O1484       O  0.28666335  0.85366225  0.88882831    -0.56700
O1485       O  0.24169271  0.82098148  0.92970756    -0.55100
O1486       O  0.25778063  0.87162525  0.82555048    -0.55100
O1487       O  0.22015471  0.82690483  0.85385765    -0.54300
O1488       O  0.20620343  0.90657047  0.69935609    -0.55500
C1489       C  0.15492742  0.89506633  0.62622904     0.77200
O1490       O  0.15646898  0.91118694  0.75084724    -0.56600
C1491       C  0.21170797  0.91362553  0.73512766     0.77100
C1492       C  0.19765428  0.95740349  0.66033423     0.79500
Cd1493     Cd  0.18046860  0.91720593  0.69321669     1.37500
O1494       O  0.17165339  0.89563299  0.63258108    -0.55500
O1495       O  0.20082371  0.94403333  0.64506145    -0.54300
C1496       C  0.15067847  0.89240265  0.75232849     0.79500
O1497       O  0.18704672  0.95260057  0.69276702    -0.56700
O1498       O  0.15055640  0.90532409  0.65021419    -0.55100
O1499       O  0.20443520  0.92414246  0.74886679    -0.55100
O1500       O  0.15821416  0.88599280  0.72599638    -0.54300
O1501       O  0.12306369  0.36499908  0.88317976    -0.55500
C1502       C  0.17298754  0.40354215  0.96389346     0.77200
O1503       O  0.17388832  0.41793801  0.83803964    -0.56600
C1504       C  0.11955451  0.36742042  0.84624802     0.77100
C1505       C  0.13024218  0.42289866  0.92165627     0.79500
Cd1506     Cd  0.14921415  0.40073536  0.89391770     1.37500
O1507       O  0.15629930  0.38748667  0.95635400    -0.55500
O1508       O  0.12261868  0.40408390  0.92726729    -0.54300
C1509       C  0.17948170  0.40477389  0.83773614     0.79500
O1510       O  0.14666068  0.43178563  0.90133346    -0.56700
O1511       O  0.17776688  0.41833098  0.94022571    -0.55100
O1512       O  0.12819240  0.38549334  0.83340558    -0.55100
O1513       O  0.17141736  0.39081503  0.86396972    -0.54300
O1514       O  0.09381775  0.30111827  0.70078722    -0.55500
C1515       C  0.10301735  0.26232086  0.61851067     0.77200
O1516       O  0.08976250  0.24707869  0.74655168    -0.56600
C1517       C  0.08761599  0.29885022  0.73753792     0.77100
C1518       C  0.04178389  0.24289501  0.66305821     0.79500
Cd1519     Cd  0.08313943  0.26493052  0.69048540     1.37500
O1520       O  0.10281392  0.27840485  0.62738490    -0.55500
O1521       O  0.05318126  0.26170269  0.65751540    -0.54300
C1522       C  0.10865522  0.26006279  0.74687731     0.79500
O1523       O  0.04916142  0.23404931  0.68368802    -0.56700
O1524       O  0.09340992  0.24747924  0.64234827    -0.55100
O1525       O  0.07802126  0.28082478  0.75059403    -0.55100
O1526       O  0.11496363  0.27374555  0.72000252    -0.54300
O1527       O  0.23337973  0.38687028  0.70652894    -0.55500
C1528       C  0.25007318  0.36702835  0.59786893     0.77200
O1529       O  0.24728239  0.41855325  0.58809300    -0.56600
C1530       C  0.23267473  0.40282098  0.71404684     0.77100
C1531       C  0.29450122  0.42213865  0.67657611     0.79500
Cd1532     Cd  0.25388657  0.40056191  0.64443362     1.37500
O1533       O  0.24258804  0.36451485  0.63354950    -0.55500
O1534       O  0.28239021  0.40354049  0.68310220    -0.54300
C1535       C  0.22838819  0.40552204  0.58736301     0.79500
O1536       O  0.28821938  0.43107093  0.65310799    -0.56700
O1537       O  0.26097849  0.38516901  0.58605284    -0.55100
O1538       O  0.24244789  0.41757579  0.69007987    -0.55100
O1539       O  0.22215339  0.39151880  0.61351813    -0.54300
O1540       O  0.18026319  0.27917618  0.87924027    -0.55500
C1541       C  0.21663683  0.29901216  0.98789150     0.77200
O1542       O  0.16091328  0.24681610  0.99377568    -0.56600
C1543       C  0.16378579  0.26299053  0.87126019     0.77100
C1544       C  0.20546954  0.24322335  0.91077188     0.79500
Cd1545     Cd  0.18719144  0.26549200  0.94060592     1.37500
O1546       O  0.21241079  0.30148872  0.95160931    -0.55500
O1547       O  0.21131080  0.26122545  0.89996401    -0.54300
C1548       C  0.15559643  0.26018057  0.99422433     0.79500
O1549       O  0.19145774  0.23548783  0.93741477    -0.56700
O1550       O  0.20889623  0.28088762  0.00002477    -0.55100
O1551       O  0.15920330  0.24798904  0.89417583    -0.55100
O1552       O  0.16440193  0.27463480  0.96928813    -0.54300
O1553       O  0.27321203  0.17256355  0.86036904    -0.55500
C1554       C  0.29613493  0.21128773  0.75832395     0.77200
O1555       O  0.24384887  0.15838052  0.73847343    -0.56600
C1556       C  0.25704029  0.15588904  0.86690933     0.77100
C1557       C  0.24071928  0.20092029  0.83014099     0.79500
Cd1558     Cd  0.26074953  0.18065148  0.79846592     1.37500
O1559       O  0.29690659  0.20518960  0.79398044    -0.55500
O1560       O  0.25921545  0.20675058  0.83629185    -0.54300
C1561       C  0.25665977  0.15230150  0.73756985     0.79500
O1562       O  0.23103270  0.18561867  0.80705291    -0.56700
O1563       O  0.27862648  0.20439215  0.74298051    -0.55100
O1564       O  0.24254213  0.15122506  0.84236479    -0.55100
O1565       O  0.26999402  0.15889623  0.76521536    -0.54300
O1566       O  0.36759701  0.24026549  0.62690370    -0.55500
C1567       C  0.40478165  0.22702639  0.55424348     0.77200
O1568       O  0.43497301  0.28393185  0.61218359    -0.56600
C1569       C  0.36896046  0.24707355  0.66285166     0.77100
C1570       C  0.40745054  0.22556394  0.68298852     0.79500
Cd1571     Cd  0.40355463  0.25015800  0.62180278     1.37500
O1572       O  0.38912760  0.22840883  0.56119796    -0.55500
O1573       O  0.39404547  0.21909427  0.65551502    -0.54300
C1574       C  0.42608444  0.29068418  0.58982594     0.79500
O1575       O  0.42041991  0.24441596  0.68211662    -0.56700
O1576       O  0.41985223  0.23713715  0.57735361    -0.55100
O1577       O  0.38664738  0.25698730  0.67775996    -0.55100
O1578       O  0.40730629  0.27901958  0.58408754    -0.54300
O1579       O  0.29540735  0.08400586  0.54481405    -0.55500
C1580       C  0.25818690  0.09868239  0.61463714     0.77200
O1581       O  0.24137428  0.08244753  0.49351104    -0.56600
C1582       C  0.29392648  0.07658711  0.50945700     0.77100
C1583       C  0.23546736  0.03576997  0.58277135     0.79500
Cd1584     Cd  0.25970979  0.07548428  0.54857811     1.37500
O1585       O  0.27416465  0.09791910  0.60720209    -0.55500
O1586       O  0.25054348  0.04993337  0.60089080    -0.54300
C1587       C  0.25505760  0.10099851  0.49071748     0.79500
O1588       O  0.23135814  0.03973896  0.54757107    -0.56700
O1589       O  0.24292887  0.08793585  0.59232374    -0.55100
O1590       O  0.27624949  0.06694119  0.49455406    -0.55100
O1591       O  0.27001125  0.10692071  0.51446240    -0.54300
O1592       O  0.36448527  0.11714787  0.87639107    -0.55500
C1593       C  0.40428510  0.16930764  0.80561362     0.77200
O1594       O  0.41772445  0.16643482  0.93026293    -0.56600
C1595       C  0.36580578  0.11155272  0.91219510     0.77100
C1596       C  0.42260646  0.12513659  0.83792506     0.79500
Cd1597     Cd  0.40060428  0.14327542  0.87160819     1.37500
O1598       O  0.38798537  0.15269622  0.81206408    -0.55500
O1599       O  0.40622458  0.12266790  0.82300094    -0.54300
C1600       C  0.40510177  0.17274725  0.93092112     0.79500
O1601       O  0.42903225  0.13594027  0.86999074    -0.56700
O1602       O  0.41909327  0.17327096  0.82888514    -0.55100
O1603       O  0.38347974  0.11927449  0.92699205    -0.55100
O1604       O  0.39141880  0.16564331  0.90396704    -0.54300
O1605       O  0.94500338  0.43116901  0.78498017    -0.55500
C1606       C  0.96479304  0.41421956  0.67663982     0.77200
O1607       O  0.90114913  0.37568627  0.73272422    -0.56600
C1608       C  0.92892602  0.43169017  0.79278061     0.77100
C1609       C  0.92570858  0.43556252  0.66671680     0.79500
Cd1610     Cd  0.93106388  0.41020691  0.72339875     1.37500
O1611       O  0.96703166  0.42118896  0.71269625    -0.55500
O1612       O  0.93945486  0.44183615  0.69349871    -0.54300
C1613       C  0.91054249  0.36986233  0.75607408     0.79500
O1614       O  0.91302953  0.41660538  0.66663222    -0.56700
O1615       O  0.94670068  0.40381685  0.66396679    -0.55100
O1616       O  0.91388426  0.42142380  0.76968192    -0.55100
O1617       O  0.92912944  0.38232406  0.76218646    -0.54300
O1618       O  0.03204113  0.45535819  0.53465477    -0.55500
C1619       C  0.07058139  0.50598065  0.95759741     0.77200
O1620       O  0.08673316  0.50568869  0.58164011    -0.56600
C1621       C  0.03427709  0.45055483  0.57061885     0.77100
C1622       C  0.08995040  0.46241227  0.99451958     0.79500
Cd1623     Cd  0.06815128  0.48128156  0.52545848     1.37500
O1624       O  0.05445742  0.48934598  0.96494748    -0.55500
O1625       O  0.07184122  0.45687525  0.98474798    -0.54300
C1626       C  0.07328058  0.51087557  0.58419177     0.79500
O1627       O  0.09826144  0.47680440  0.52013598    -0.56700
O1628       O  0.08553997  0.51042267  0.98065665    -0.55100
O1629       O  0.05233369  0.45864515  0.58360556    -0.55100
O1630       O  0.05877103  0.50275871  0.55913195    -0.54300
O1631       O  0.94657895  0.50780819  0.53521524    -0.55500
C1632       C  0.96777187  0.54663881  0.92778631     0.77200
O1633       O  0.91660065  0.49282386  0.91548562    -0.56600
C1634       C  0.93017417  0.49127686  0.54176987     0.77100
C1635       C  0.91205099  0.53529841  0.50309824     0.79500
Cd1636     Cd  0.93390807  0.51616133  0.97334199     1.37500
O1637       O  0.96999613  0.54233081  0.96421546    -0.55500
O1638       O  0.93053922  0.54174438  0.51112756    -0.54300
C1639       C  0.92867766  0.48584703  0.91597601     0.79500
O1640       O  0.90340053  0.51997937  0.97974848    -0.56700
O1641       O  0.94977466  0.53788869  0.91432635    -0.55100
O1642       O  0.91562275  0.48708402  0.51770788    -0.55100
O1643       O  0.94221987  0.49273498  0.94324572    -0.54300
O1644       O  0.05623576  0.56529055  0.71492630    -0.55500
C1645       C  0.03635596  0.58464348  0.81976530     0.77200
O1646       O  0.08738265  0.57948945  0.83028784    -0.56600
C1647       C  0.07213501  0.56427478  0.70810954     0.77100
C1648       C  0.09375886  0.62629203  0.74126413     0.79500
Cd1649     Cd  0.06969140  0.58667286  0.77497168     1.37500
O1650       O  0.03385353  0.57777091  0.78358148    -0.55500
O1651       O  0.07780558  0.61270024  0.72430336    -0.54300
C1652       C  0.07347359  0.56098617  0.83268546     0.79500
O1653       O  0.09855290  0.62185839  0.77528608    -0.56700
O1654       O  0.05449350  0.59472270  0.83215343    -0.55100
O1655       O  0.08698967  0.57419586  0.73193488    -0.55100
O1656       O  0.05904186  0.55507765  0.80756247    -0.54300
C1657       C  0.98248573  0.56149944  0.85896938     0.25900
C1658       C  0.98528107  0.56013316  0.90121688    -0.22200
C1659       C  0.00517884  0.57007825  0.91669880     0.20800
C1660       C  0.02183520  0.57981315  0.89034566     0.25900
C1661       C  0.01902268  0.57939598  0.84771408    -0.22100
C1662       C  0.99916571  0.57087339  0.83253694     0.20800
F1663       F  0.99580882  0.57079204  0.79182989    -0.12100
F1664       F  0.96359498  0.55269955  0.84261192    -0.14400
F1665       F  0.04073926  0.58828469  0.90657133    -0.14400
F1666       F  0.00866509  0.56950024  0.95717018    -0.12100
C1667       C  0.05601458  0.51360253  0.89614082     0.25900
C1668       C  0.07184928  0.51978580  0.92447801    -0.22200
C1669       C  0.08861441  0.53961340  0.92173497     0.20800
C1670       C  0.08935950  0.55294352  0.89163071     0.25900
C1671       C  0.07343040  0.54677942  0.86351962    -0.22100
C1672       C  0.05678387  0.52686442  0.86603648     0.20800
F1673       F  0.04090966  0.52015441  0.83982861    -0.12100
F1674       F  0.03957257  0.49469452  0.89756159    -0.14400
F1675       F  0.10557569  0.57199366  0.89054178    -0.14400
F1676       F  0.10413838  0.54638751  0.94880041    -0.12100
C1677       C  0.09116405  0.53759451  0.63809763     0.25900
C1678       C  0.07371478  0.52528623  0.61495363    -0.22200
C1679       C  0.05614446  0.52662830  0.62160240     0.20800
C1680       C  0.05588399  0.53965264  0.65097966     0.25900
C1681       C  0.07313552  0.55167669  0.67481261    -0.22100
C1682       C  0.09091516  0.55073079  0.66765002     0.20800
F1683       F  0.10808101  0.56237696  0.68937091    -0.12100
F1684       F  0.10847162  0.53697621  0.63218113    -0.14400
F1685       F  0.03845673  0.54009670  0.65647664    -0.14400
F1686       F  0.03880137  0.51489635  0.60043780    -0.12100
C1687       C  0.94192604  0.45094846  0.85819396     0.25900
C1688       C  0.92786199  0.44421398  0.82608996    -0.22200
C1689       C  0.91330839  0.45042774  0.82489201     0.20800
C1690       C  0.91324119  0.46359379  0.85447486     0.25900
C1691       C  0.92765853  0.47078436  0.88603779    -0.22100
C1692       C  0.94182386  0.46402511  0.88787063     0.20800
F1693       F  0.95592290  0.47029346  0.91799132    -0.12100
F1694       F  0.95588349  0.44493210  0.86093407    -0.14400
F1695       F  0.89932711  0.46964558  0.85149158    -0.14400
F1696       F  0.89958964  0.44444751  0.79410010    -0.12100
C1697       C  0.94216173  0.48393248  0.60722536     0.25900
C1698       C  0.92809383  0.47727409  0.57516164    -0.22200
C1699       C  0.91229782  0.45689573  0.57471211     0.20800
C1700       C  0.91098029  0.44340830  0.60513658     0.25900
C1701       C  0.92544742  0.44996349  0.63658588    -0.22100
C1702       C  0.94078982  0.47055032  0.63768180     0.20800
F1703       F  0.95485571  0.47786372  0.66790523    -0.12100
F1704       F  0.95742538  0.50346331  0.60917630    -0.14400
F1705       F  0.89575266  0.42386674  0.60322236    -0.14400
F1706       F  0.89849078  0.44974863  0.54400524    -0.12100
C1707       C  0.01911923  0.43777383  0.64001362     0.25900
C1708       C  0.01669326  0.43741868  0.59727668    -0.22200
C1709       C  0.99699670  0.42630141  0.58105627     0.20800
C1710       C  0.98005943  0.41727342  0.60693650     0.25900
C1711       C  0.98245698  0.41934517  0.64969157    -0.22100
C1712       C  0.00220134  0.42885448  0.66584832     0.20800
F1713       F  0.00521298  0.43036566  0.70684456    -0.12100
F1714       F  0.03782204  0.44793819  0.65718858    -0.14400
F1715       F  0.96130687  0.40764637  0.58988265    -0.14400
F1716       F  0.99401364  0.42485704  0.54005399    -0.12100
C1717       C  0.34886025  0.09796966  0.97978144     0.25900
C1718       C  0.34758584  0.09809308  0.93683187    -0.22200
C1719       C  0.32835868  0.08754000  0.91844554     0.20800
C1720       C  0.31077427  0.07872323  0.94238625     0.25900
C1721       C  0.31204922  0.08062217  0.98525566    -0.22100
C1722       C  0.33126860  0.08941654  0.00371264     0.20800
F1723       F  0.33313817  0.09081013  0.54497807    -0.12100
F1724       F  0.36710274  0.10756703  0.99893307    -0.14400
F1725       F  0.29252661  0.06977307  0.92324104    -0.14400
F1726       F  0.32647064  0.08672007  0.87718057    -0.12100
C1727       C  0.42349575  0.21702371  0.74139143     0.25900
C1728       C  0.40726815  0.21137378  0.71418206    -0.22200
C1729       C  0.39036805  0.19162926  0.71685768     0.20800
C1730       C  0.38968039  0.17796158  0.74582233     0.25900
C1731       C  0.40576566  0.18359116  0.77330421    -0.22100
C1732       C  0.42277292  0.20327638  0.77062698     0.20800
F1733       F  0.43862634  0.20942307  0.79669289    -0.12100
F1734       F  0.44009155  0.23581086  0.73979017    -0.14400
F1735       F  0.37305495  0.15916884  0.74692349    -0.14400
F1736       F  0.37411694  0.18544423  0.69185034    -0.12100
C1737       C  0.42006129  0.20781902  0.02268094     0.25900
C1738       C  0.40541469  0.21391275  0.52164442    -0.22200
C1739       C  0.39105960  0.20678039  0.49002262     0.20800
C1740       C  0.39119817  0.19371028  0.96034903     0.25900
C1741       C  0.40571469  0.18738153  0.96158180    -0.22100
C1742       C  0.42021706  0.19472829  0.99299605     0.20800
F1743       F  0.43440230  0.18902066  0.99555710    -0.12100
F1744       F  0.43393350  0.21400688  0.05321592    -0.14400
F1745       F  0.37689195  0.18716442  0.93060008    -0.14400
F1746       F  0.37685667  0.21248807  0.48758841    -0.12100
C1747       C  0.27392227  0.13627000  0.70138935     0.25900
C1748       C  0.25668446  0.13841028  0.70608114    -0.22200
C1749       C  0.23985168  0.12716485  0.68069710     0.20800
C1750       C  0.24020894  0.11401979  0.65141008     0.25900
C1751       C  0.25743101  0.11184293  0.64691196    -0.22100
C1752       C  0.27423755  0.12308726  0.67238092     0.20800
F1753       F  0.29117358  0.12154487  0.66915567    -0.12100
F1754       F  0.29081434  0.14726028  0.72432959    -0.14400
F1755       F  0.22371909  0.10364109  0.62713353    -0.14400
F1756       F  0.22295964  0.12873801  0.68427740    -0.12100
C1757       C  0.26990928  0.14920069  0.93188160     0.25900
C1758       C  0.25534370  0.14224690  0.90065815    -0.22200
C1759       C  0.23970294  0.12183818  0.90095318     0.20800
C1760       C  0.23922774  0.10848654  0.93073091     0.25900
C1761       C  0.25428171  0.11526545  0.96103515    -0.22100
C1762       C  0.26937137  0.13593359  0.96174373     0.20800
F1763       F  0.28393460  0.14343068  0.49101402    -0.12100
F1764       F  0.28486332  0.16888197  0.93350106    -0.14400
F1765       F  0.22435711  0.08879602  0.92900294    -0.14400
F1766       F  0.22521333  0.11452413  0.87154962    -0.12100
C1767       C  0.31396212  0.22629801  0.69198561     0.25900
C1768       C  0.31480288  0.22452791  0.73470114    -0.22200
C1769       C  0.33389847  0.23328301  0.75370236     0.20800
C1770       C  0.35165984  0.24211280  0.73037907     0.25900
C1771       C  0.35072799  0.24221938  0.68743211    -0.22100
C1772       C  0.33174732  0.23493971  0.66860863     0.20800
F1773       F  0.33027781  0.23528283  0.62734883    -0.12100
F1774       F  0.29589407  0.21841033  0.67233337    -0.14400
F1775       F  0.36964725  0.24903151  0.74990048    -0.14400
F1776       F  0.33543515  0.23230710  0.79482888    -0.12100
C1777       C  0.21076081  0.20113742  0.86181369     0.25900
C1778       C  0.23127668  0.21155677  0.84994415    -0.22200
C1779       C  0.24332158  0.23217545  0.85987142     0.20800
C1780       C  0.23494382  0.24229632  0.88024152     0.25900
C1781       C  0.21446320  0.23194330  0.89209592    -0.22100
C1782       C  0.20248190  0.21120519  0.88320731     0.20800
F1783       F  0.18262835  0.20082469  0.89418848    -0.12100
F1784       F  0.19887630  0.18111377  0.85373694    -0.14400
F1785       F  0.24700113  0.26224026  0.88892630    -0.14400
F1786       F  0.26325841  0.24268110  0.84946077    -0.12100
C1787       C  0.23933256  0.33625157  0.50075686     0.25900
C1788       C  0.22865337  0.31633973  0.51579828    -0.22200
C1789       C  0.22746722  0.31333098  0.55843268     0.20800
C1790       C  0.23554296  0.32981905  0.58525056     0.25900
C1791       C  0.24508578  0.34972523  0.57017614    -0.22100
C1792       C  0.24752606  0.35274041  0.52758747     0.20800
F1793       F  0.25666562  0.37166238  0.51154838    -0.12100
F1794       F  0.24112785  0.33987263  0.95995949    -0.14400
F1795       F  0.23324356  0.32620617  0.62603665    -0.14400
F1796       F  0.21728489  0.29441581  0.57446059    -0.12100
C1797       C  0.12842223  0.27876879  0.56247076     0.25900
C1798       C  0.11459249  0.26109652  0.58330694    -0.22200
C1799       C  0.11309627  0.24255712  0.57200691     0.20800
C1800       C  0.12601617  0.24199662  0.54220881     0.25900
C1801       C  0.14058496  0.25990991  0.52317816    -0.22100
C1802       C  0.14124454  0.27819163  0.53285168     0.20800
F1803       F  0.15500068  0.29586800  0.01500613    -0.12100
F1804       F  0.13023633  0.29690378  0.57180399    -0.14400
F1805       F  0.12422498  0.22396434  0.53194159    -0.14400
F1806       F  0.09930991  0.22496306  0.59003914    -0.12100
C1807       C  0.11781733  0.24314072  0.80193422     0.25900
C1808       C  0.12291748  0.26012693  0.77752467    -0.22200
C1809       C  0.14181003  0.27785604  0.78352385     0.20800
C1810       C  0.15517308  0.27865749  0.81340485     0.25900
C1811       C  0.15012876  0.26171043  0.83789338    -0.22100
C1812       C  0.13130051  0.24388462  0.83173269     0.20800
F1813       F  0.12562656  0.22723050  0.85511947    -0.12100
F1814       F  0.09976982  0.22581301  0.79718808    -0.14400
F1815       F  0.17283932  0.29631226  0.81893459    -0.14400
F1816       F  0.14720254  0.29484760  0.76146347    -0.12100
C1817       C  0.13169485  0.45269639  0.95734012     0.25900
C1818       C  0.12030842  0.43364669  0.93872458    -0.22200
C1819       C  0.09905580  0.42408605  0.93919471     0.20800
C1820       C  0.08930919  0.43345486  0.95729853     0.25900
C1821       C  0.10058947  0.45248741  0.97626191    -0.22100
C1822       C  0.12192219  0.46195513  0.97634861     0.20800
F1823       F  0.13335324  0.48020800  0.99456230    -0.12100
F1824       F  0.15224072  0.46196761  0.95860479    -0.14400
F1825       F  0.06872327  0.42361293  0.45683389    -0.14400
F1826       F  0.08763753  0.40561769  0.92176314    -0.12100
C1827       C  0.19454196  0.38865968  0.55267301     0.25900
C1828       C  0.21400318  0.40584912  0.55728184    -0.22200
C1829       C  0.21943017  0.42274549  0.53229971     0.20800
C1830       C  0.20591247  0.42227413  0.00276090     0.25900
C1831       C  0.18664543  0.40483939  0.49752540    -0.22100
C1832       C  0.18109882  0.38817753  0.52325046     0.20800
F1833       F  0.16276205  0.37108565  0.51949461    -0.12100
F1834       F  0.18855317  0.37187355  0.57582632    -0.14400
F1835       F  0.21196167  0.43879806  0.97875767    -0.14400
F1836       F  0.23784472  0.43972279  0.53622626    -0.12100
C1837       C  0.19716072  0.38824687  0.80466449     0.25900
C1838       C  0.19427529  0.40504865  0.80799106    -0.22200
C1839       C  0.20520034  0.42162568  0.78188817     0.20800
C1840       C  0.21825748  0.42121577  0.75239300     0.25900
C1841       C  0.22051901  0.40408724  0.74803226    -0.22100
C1842       C  0.21009805  0.38778460  0.77504101     0.20800
F1843       F  0.21207609  0.37113297  0.77246961    -0.12100
F1844       F  0.18703080  0.37185992  0.82926897    -0.14400
F1845       F  0.22830346  0.43749958  0.72752825    -0.14400
F1846       F  0.20312800  0.43821281  0.78448018    -0.12100
C1847       C  0.10870033  0.35275534  0.77571864     0.25900
C1848       C  0.10748339  0.34999054  0.81845919    -0.22200
C1849       C  0.09697432  0.33014696  0.83382263     0.20800
C1850       C  0.08957531  0.31352593  0.80740702     0.25900
C1851       C  0.09231893  0.31630795  0.76477888    -0.22100
C1852       C  0.10131520  0.33612180  0.74925259     0.20800
F1853       F  0.10376134  0.33954749  0.70841902    -0.12100
F1854       F  0.11809585  0.37160180  0.75929494    -0.14400
F1855       F  0.08080683  0.29474160  0.82400979    -0.14400
F1856       F  0.09454922  0.32673869  0.87466456    -0.12100
C1857       C  0.20801310  0.97907864  0.59770937     0.25900
C1858       C  0.20586692  0.97741470  0.64051529    -0.22200
C1859       C  0.21210812  0.99500861  0.66377286     0.20800
C1860       C  0.22113312  0.01396625  0.64473559     0.25900
C1861       C  0.22379079  0.01563846  0.60205457    -0.22100
C1862       C  0.21668142  0.99799085  0.57864433     0.20800
F1863       F  0.21902763  0.99910914  0.53746145    -0.12100
F1864       F  0.20175417  0.96234968  0.57420925    -0.14400
F1865       F  0.22736927  0.03074608  0.66808110    -0.14400
F1866       F  0.21034511  0.99397041  0.70506708    -0.12100
C1867       C  0.24329125  0.89064082  0.76951512     0.25900
C1868       C  0.24225222  0.89173873  0.81240361    -0.22200
C1869       C  0.23361877  0.90265104  0.82907407     0.20800
C1870       C  0.22493500  0.91098200  0.80371635     0.25900
C1871       C  0.22457770  0.90854030  0.76096105    -0.22100
C1872       C  0.23447625  0.89885717  0.74413689     0.20800
F1873       F  0.23485911  0.89649530  0.70312053    -0.12100
F1874       F  0.25164251  0.88043779  0.75190125    -0.14400
F1875       F  0.21563769  0.92023516  0.82147896    -0.14400
F1876       F  0.23276868  0.90455913  0.87012738    -0.12100
C1877       C  0.10688558  0.86426632  0.56411850     0.25900
C1878       C  0.11392726  0.85696065  0.53240299    -0.22200
C1879       C  0.13478020  0.86322776  0.53080779     0.20800
C1880       C  0.14805487  0.87579823  0.56087572     0.25900
C1881       C  0.14097769  0.88271990  0.59309943    -0.22100
C1882       C  0.12029547  0.87709979  0.59406396     0.20800
F1883       F  0.11281849  0.88337696  0.62483716    -0.12100
F1884       F  0.08695069  0.85856470  0.56696158    -0.14400
F1885       F  0.16791012  0.88114286  0.55832157    -0.14400
F1886       F  0.14249475  0.85703735  0.50031414    -0.12100
C1887       C  0.11421140  0.87133146  0.84231555     0.25900
C1888       C  0.11063177  0.85136062  0.84446932    -0.22200
C1889       C  0.11979545  0.84499684  0.81536090     0.20800
C1890       C  0.13245606  0.85825697  0.78533707     0.25900
C1891       C  0.13630663  0.87832844  0.78335943    -0.22100
C1892       C  0.12686660  0.88464653  0.81200502     0.20800
F1893       F  0.13000098  0.90375238  0.81108039    -0.12100
F1894       F  0.10587521  0.87822485  0.87009360    -0.14400
F1895       F  0.14124257  0.85135081  0.75865024    -0.14400
F1896       F  0.11668652  0.82589161  0.81592051    -0.12100
C1897       C  0.12237402  0.68290197  0.72720182     0.25900
C1898       C  0.12406554  0.68467538  0.68436773    -0.22200
C1899       C  0.11757266  0.66715323  0.66070155     0.20800
C1900       C  0.10826921  0.64811121  0.67943019     0.25900
C1901       C  0.10574372  0.64635824  0.72212215    -0.22100
C1902       C  0.11345132  0.66392563  0.74590213     0.20800
F1903       F  0.11131652  0.66267388  0.78712458    -0.12100
F1904       F  0.12921826  0.69959060  0.75107275    -0.14400
F1905       F  0.10156968  0.63134266  0.65583311    -0.14400
F1906       F  0.11931480  0.66834909  0.61940449    -0.12100
C1907       C  0.21514773  0.79146036  0.48847837     0.25900
C1908       C  0.22021085  0.81192829  0.48867623    -0.22200
C1909       C  0.21304566  0.81888705  0.52071007     0.20800
C1910       C  0.20026886  0.80554514  0.55059396     0.25900
C1911       C  0.19413023  0.78479320  0.54899626    -0.22100
C1912       C  0.20219643  0.77803207  0.51824965     0.20800
F1913       F  0.19710751  0.75830835  0.51612188    -0.12100
F1914       F  0.22200276  0.78413544  0.45848790    -0.14400
F1915       F  0.19358060  0.81302766  0.58061199    -0.14400
F1916       F  0.21819820  0.83862614  0.52302075    -0.12100
C1917       C  0.20518642  0.78362526  0.73653976     0.25900
C1918       C  0.18514168  0.78000725  0.73445046    -0.22200
C1919       C  0.17884559  0.78942721  0.76309220     0.20800
C1920       C  0.19221041  0.80213410  0.79302532     0.25900
C1921       C  0.21230910  0.80584538  0.79505208    -0.22100
C1922       C  0.21861129  0.79643674  0.76638654     0.20800
F1923       F  0.23784534  0.79974381  0.76682167    -0.12100
F1924       F  0.21208806  0.77518744  0.70903512    -0.14400
F1925       F  0.18545512  0.81116443  0.81942211    -0.14400
F1926       F  0.15977088  0.78656208  0.76205827    -0.12100
C1927       C  0.09273357  0.76225634  0.58195434     0.25900
C1928       C  0.10234026  0.75229606  0.56508764    -0.22200
C1929       C  0.10150728  0.74940970  0.52240478     0.20800
C1930       C  0.09281035  0.75775873  0.49709342     0.25900
C1931       C  0.08444687  0.76890178  0.51382604    -0.22100
C1932       C  0.08379544  0.77035021  0.55668661     0.20800
F1933       F  0.07588756  0.78095513  0.57432079    -0.12100
F1934       F  0.09289939  0.76517276  0.62287794    -0.14400
F1935       F  0.09342643  0.75568784  0.95603405    -0.14400
F1936       F  0.11032643  0.73968563  0.50465687    -0.12100
C1937       C  0.56964130  0.56703705  0.67608428     0.25900
C1938       C  0.58008902  0.55799947  0.65894639    -0.22200
C1939       C  0.58301741  0.55905179  0.61625603     0.20800
C1940       C  0.57419476  0.56735379  0.59118601     0.25900
C1941       C  0.56247228  0.57503405  0.60818581    -0.22100
C1942       C  0.56101615  0.57552676  0.65106297     0.20800
F1943       F  0.54998372  0.58289893  0.66896517    -0.12100
F1944       F  0.56679472  0.56674472  0.71705919    -0.14400
F1945       F  0.57640984  0.56702778  0.55010314    -0.14400
F1946       F  0.59325144  0.55081810  0.59826359    -0.12100
C1947       C  0.46588694  0.33823810  0.53556350     0.25900
C1948       C  0.45505101  0.34841891  0.52858542    -0.22200
C1949       C  0.43500044  0.33967472  0.54310783     0.20800
C1950       C  0.42591222  0.32117664  0.56357911     0.25900
C1951       C  0.43665618  0.31097695  0.57064220    -0.22100
C1952       C  0.45679756  0.31972521  0.55665844     0.20800
F1953       F  0.46746126  0.31007302  0.56223126    -0.12100
F1954       F  0.48537650  0.34634948  0.52270174    -0.14400
F1955       F  0.40651811  0.31331072  0.57692172    -0.14400
F1956       F  0.42395442  0.34890076  0.53708841    -0.12100
C1957       C  0.55306232  0.45616691  0.83341079     0.25900
C1958       C  0.55462695  0.47520765  0.82770172    -0.22200
C1959       C  0.54339431  0.48070771  0.85334881     0.20800
C1960       C  0.53044638  0.46735623  0.88291495     0.25900
C1961       C  0.52832586  0.44805842  0.88780715    -0.22100
C1962       C  0.53993821  0.44268862  0.86301225     0.20800
F1963       F  0.53865999  0.42443677  0.86740506    -0.12100
F1964       F  0.56403334  0.45040709  0.81011688    -0.14400
F1965       F  0.51947504  0.47324740  0.90589217    -0.14400
F1966       F  0.54450028  0.49890838  0.84940237    -0.12100
C1967       C  0.52881393  0.46697546  0.63415639     0.25900
C1968       C  0.54840826  0.46952051  0.63799456    -0.22200
C1969       C  0.55401110  0.45844803  0.61220977     0.20800
C1970       C  0.54051040  0.44547794  0.58270109     0.25900
C1971       C  0.52112806  0.44336210  0.57826103    -0.22100
C1972       C  0.51540180  0.45412176  0.60462225     0.20800
F1973       F  0.49686833  0.45248287  0.60166968    -0.12100
F1974       F  0.52255867  0.47718087  0.65851818    -0.14400
F1975       F  0.54670104  0.43538944  0.55786022    -0.14400
F1976       F  0.57263968  0.46031573  0.61503093    -0.12100
C1977       C  0.34371543  0.43109571  0.72345141     0.25900
C1978       C  0.35260639  0.45121915  0.73731191    -0.22200
C1979       C  0.34224300  0.46188228  0.73046502     0.20800
C1980       C  0.32361039  0.45270626  0.70964480     0.25900
C1981       C  0.31478546  0.43256823  0.69608771    -0.22100
C1982       C  0.32496426  0.42184588  0.70358257     0.20800
F1983       F  0.31688777  0.40237919  0.69100475    -0.12100
F1984       F  0.35307680  0.42018080  0.72939618    -0.14400
F1985       F  0.31393636  0.46332619  0.70378800    -0.14400
F1986       F  0.35033077  0.48133402  0.74306448    -0.12100
C1987       C  0.44945470  0.53775748  0.89861867     0.25900
C1988       C  0.45430018  0.52574028  0.87394290    -0.22200
C1989       C  0.47343901  0.52730512  0.87862100     0.20800
C1990       C  0.48712176  0.54006953  0.90795344     0.25900
C1991       C  0.48216735  0.55177062  0.93334645    -0.22100
C1992       C  0.46327191  0.55071469  0.92790905     0.20800
F1993       F  0.45788444  0.56187581  0.95148592    -0.12100
F1994       F  0.43139642  0.53704349  0.89442690    -0.14400
F1995       F  0.50508677  0.54055534  0.91191967    -0.14400
F1996       F  0.47881959  0.51594015  0.85567758    -0.12100
C1997       C  0.45469776  0.51145716  0.65157818     0.25900
C1998       C  0.44793227  0.51869560  0.68381015    -0.22200
C1999       C  0.45373984  0.53935854  0.68456104     0.20800
C2000       C  0.46656318  0.55257377  0.65444636     0.25900
C2001       C  0.47379481  0.54541678  0.62284604    -0.22100
C2002       C  0.46731881  0.52458678  0.62130787     0.20800
F2003       F  0.47346739  0.51680088  0.59089205    -0.12100
F2004       F  0.44927991  0.49164208  0.64937582    -0.14400
F2005       F  0.47228385  0.57245612  0.65696970    -0.14400
F2006       F  0.44768631  0.54704324  0.71532103    -0.12100
C2007       C  0.43166041  0.42957216  0.92392041     0.25900
C2008       C  0.44258850  0.42104246  0.90678635    -0.22200
C2009       C  0.44460257  0.42117491  0.86398532     0.20800
C2010       C  0.43672404  0.43044200  0.83910357     0.25900
C2011       C  0.42631660  0.43954218  0.85625825    -0.22100
C2012       C  0.42348521  0.43856708  0.89897916     0.20800
F2013       F  0.41382378  0.44736135  0.91711331    -0.12100
F2014       F  0.42952132  0.42994111  0.96502340    -0.14400
F2015       F  0.44014679  0.43125907  0.79827970    -0.14400
F2016       F  0.45547220  0.41360152  0.84612895    -0.12100
C2017       C  0.90245907  0.57542596  0.54816292     0.25900
C2018       C  0.88177141  0.56419016  0.55878398    -0.22200
C2019       C  0.87098530  0.54332227  0.55024490     0.20800
C2020       C  0.88062084  0.53397703  0.53103308     0.25900
C2021       C  0.90134073  0.54521681  0.52087025    -0.22100
C2022       C  0.91215655  0.56601289  0.52986571     0.20800
F2023       F  0.93214741  0.57738679  0.52033190    -0.12100
F2024       F  0.91347006  0.59557101  0.55592633    -0.14400
F2025       F  0.86979854  0.51382367  0.52337220    -0.14400
F2026       F  0.85098302  0.53201805  0.55961843    -0.12100
C2027       C  0.99232897  0.77400917  0.83367270     0.25900
C2028       C  0.97518552  0.76317340  0.85866882    -0.22200
C2029       C  0.97779203  0.76330066  0.90124535     0.20800
C2030       C  0.99713774  0.77397348  0.91852066     0.25900
C2031       C  0.01431828  0.78424562  0.89352145    -0.22100
C2032       C  0.01176595  0.78424096  0.85092793     0.20800
F2033       F  0.02811062  0.79423036  0.82601228    -0.12100
F2034       F  0.99035490  0.77404905  0.79248993    -0.14400
F2035       F  0.99912842  0.77351643  0.95961706    -0.14400
F2036       F  0.96154101  0.75311493  0.92629216    -0.12100
C2037       C  0.91179038  0.68040929  0.69910881     0.25900
C2038       C  0.90642926  0.67715823  0.74083837    -0.22200
C2039       C  0.89474224  0.65715153  0.75495602     0.20800
C2040       C  0.88750307  0.64091412  0.72767288     0.29500
C2041       C  0.89146930  0.64431904  0.68549550    -0.22100
C2042       C  0.90421460  0.66418664  0.67173632     0.20800
F2043       F  0.90865359  0.66806267  0.63143585    -0.12100
F2044       F  0.92335005  0.69939633  0.68405317    -0.14400
F2045       F  0.87524246  0.62196633  0.74233541    -0.14400
F2046       F  0.88926937  0.65324498  0.79483326    -0.12100
C2047       C  0.68545157  0.56450570  0.76517724     0.25900
C2048       C  0.68815253  0.56297242  0.80735762    -0.22200
C2049       C  0.67134931  0.54969954  0.83123623     0.20800
C2050       C  0.65208213  0.53895214  0.81365122     0.25900
C2051       C  0.64940193  0.54089231  0.77179244    -0.22100
C2052       C  0.66625192  0.55337924  0.74750157     0.20800
F2053       F  0.66395263  0.55564488  0.70710059    -0.12100
F2054       F  0.70139615  0.57683993  0.74095511    -0.14400
F2055       F  0.63595171  0.52670546  0.83756533    -0.14400
F2056       F  0.67338788  0.54771597  0.87185781    -0.12100
C2057       C  0.78478138  0.57697629  0.75270384     0.25900
C2058       C  0.78069387  0.59304971  0.75284006    -0.22200
C2059       C  0.78815192  0.60705921  0.72067556     0.20800
C2060       C  0.80003394  0.60552879  0.68995053     0.25900
C2061       C  0.80494883  0.58999857  0.69071561    -0.22100
C2062       C  0.79677800  0.57548163  0.72200779     0.20800
F2063       F  0.80085649  0.56014572  0.72377225    -0.12100
F2064       F  0.77785960  0.56306398  0.78318097    -0.14400
F2065       F  0.80710792  0.61969488  0.65995333    -0.14400
F2066       F  0.78417891  0.62247812  0.71904034    -0.12100
C2067       C  0.80809404  0.61306789  0.95049128     0.25900
C2068       C  0.78964433  0.59528586  0.94165189    -0.22200
C2069       C  0.78519357  0.57727350  0.96162578     0.20800
C2070       C  0.79859494  0.57712486  0.99052716     0.25900
C2071       C  0.81670369  0.59506305  0.50046609    -0.22100
C2072       C  0.82141470  0.61296195  0.47958236     0.20800
F2073       F  0.83869146  0.63058839  0.48789849    -0.12100
F2074       F  0.81309092  0.63085093  0.93194139    -0.14400
F2075       F  0.79353611  0.55938637  0.00929942    -0.14400
F2076       F  0.76781570  0.55973737  0.95339302    -0.12100
C2077       C  0.87606093  0.74913145  0.91494660     0.25900
C2078       C  0.88050471  0.73330647  0.91484955    -0.22200
C2079       C  0.87272139  0.71893018  0.94638591     0.20800
C2080       C  0.86049115  0.72009695  0.97681839     0.25900
C2081       C  0.85576643  0.73575629  0.97661613    -0.22100
C2082       C  0.86396261  0.75041397  0.94561810     0.20800
F2083       F  0.85983683  0.76572435  0.44414737    -0.12100
F2084       F  0.88275290  0.76302815  0.88445883    -0.14400
F2085       F  0.85294273  0.70550563  0.00598316    -0.14400
F2086       F  0.87670717  0.70351451  0.94768728    -0.12100
C2087       C  0.88014512  0.75053948  0.69953495     0.25900
C2088       C  0.87372715  0.73416187  0.72652875    -0.22200
C2089       C  0.85352138  0.71802027  0.72401768     0.20800
C2090       C  0.84041277  0.71782405  0.69409027     0.25900
C2091       C  0.84696091  0.73395257  0.66643842    -0.22100
C2092       C  0.86687484  0.75052037  0.67005257     0.20800
F2093       F  0.87384787  0.76652548  0.64423314    -0.12100
F2094       F  0.89937500  0.76647178  0.70106853    -0.14400
F2095       F  0.82134850  0.70163156  0.69200608    -0.14400
F2096       F  0.84638126  0.70205543  0.74999693    -0.12100
C2097       C  0.74866700  0.64628306  0.96991149     0.25900
C2098       C  0.75369548  0.64963795  0.92802473    -0.22200
C2099       C  0.76487163  0.66970269  0.91397966     0.20800
C2100       C  0.77242569  0.68587336  0.94151420     0.25900
C2101       C  0.76905910  0.68238519  0.98384881    -0.22100
C2102       C  0.75637242  0.66246888  0.99750147     0.20800
F2103       F  0.75207772  0.65851720  0.53782583    -0.12100
F2104       F  0.73728051  0.62724110  0.98481957    -0.14400
F2105       F  0.78436030  0.70486476  0.92676390    -0.14400
F2106       F  0.76954589  0.67374592  0.87380319    -0.12100
C2107       C  0.57318060  0.00171574  0.91593946     0.25900
C2108       C  0.58023019  0.02126930  0.90046470    -0.22200
C2109       C  0.58051144  0.02387020  0.85779340     0.20800
C2110       C  0.57206717  0.00709326  0.83163059     0.25900
C2111       C  0.56354523  0.98736481  0.84743470    -0.22100
C2112       C  0.56512555  0.98499232  0.88976444     0.20800
F2113       F  0.55769189  0.96634890  0.90647455    -0.12100
F2114       F  0.57322454  0.99860463  0.95673134    -0.14400
F2115       F  0.57135851  0.01018085  0.79100866    -0.14400
F2116       F  0.58759914  0.04252717  0.84136878    -0.12100
C2117       C  0.44478929  0.10954668  0.84157731     0.25900
C2118       C  0.43338752  0.11572423  0.81831503    -0.22200
C2119       C  0.43160263  0.11206590  0.77589096     0.20800
C2120       C  0.44082357  0.10224863  0.75723298     0.25900
C2121       C  0.45161344  0.09547380  0.78069622    -0.22100
C2122       C  0.45366098  0.09934713  0.82299125     0.20800
F2123       F  0.46432668  0.09328643  0.84637069    -0.12100
F2124       F  0.44663850  0.11259824  0.88255513    -0.14400
F2125       F  0.43841819  0.09855550  0.71648516    -0.14400
F2126       F  0.42085348  0.11795765  0.75234459    -0.12100
C2127       C  0.52502562  0.06284936  0.89641204     0.25900
C2128       C  0.54605936  0.07569764  0.89061105    -0.22200
C2129       C  0.55296226  0.08682597  0.85421152     0.20800
C2130       C  0.53918853  0.08432655  0.82339227     0.25900
C2131       C  0.51829059  0.07047862  0.82829615    -0.22100
C2132       C  0.51134377  0.06015025  0.86549502     0.20800
F2133       F  0.49125409  0.04736599  0.87208409    -0.12100
F2134       F  0.51760062  0.05253863  0.93190239    -0.14400
F2135       F  0.54646592  0.09481758  0.78806548    -0.14400
F2136       F  0.57308631  0.09934648  0.84750562    -0.12100
C2137       C  0.53601737  0.08547669  0.62328767     0.25900
C2138       C  0.52002534  0.06672101  0.63636267    -0.22200
C2139       C  0.51822027  0.04886729  0.61995080     0.20800
C2140       C  0.53205923  0.04972620  0.59096892     0.25900
C2141       C  0.54805321  0.06846923  0.57760826    -0.22100
C2142       C  0.54991480  0.08636836  0.59416535     0.20800
F2143       F  0.56526050  0.10477922  0.58248004    -0.12100
F2144       F  0.53851728  0.10293917  0.63943393    -0.14400
F2145       F  0.52936169  0.03212480  0.57514896    -0.14400
F2146       F  0.50266982  0.03045664  0.63111227    -0.12100
C2147       C  0.34269033  0.90763221  0.96274043     0.25900
C2148       C  0.35193284  0.89614124  0.97185639    -0.22200
C2149       C  0.34235116  0.87581959  0.95919129     0.20800
C2150       C  0.32376114  0.86711736  0.93833500     0.25900
C2151       C  0.31423903  0.87848150  0.93041418    -0.22100
C2152       C  0.32401294  0.89887432  0.94264785     0.20800
F2153       F  0.31554303  0.91047549  0.93496078    -0.12100
F2154       F  0.35153089  0.92734454  0.97408292    -0.14400
F2155       F  0.31480306  0.84740645  0.92701895    -0.14400
F2156       F  0.35116806  0.86448617  0.96622276    -0.12100
C2157       C  0.45123828  0.90917596  0.92285218     0.25900
C2158       C  0.44887185  0.92614127  0.92945180    -0.22200
C2159       C  0.46033454  0.94355567  0.90565749     0.20800
C2160       C  0.47387063  0.94410230  0.87631902     0.25900
C2161       C  0.47626883  0.92720666  0.86973758    -0.22100
C2162       C  0.46484625  0.90974677  0.89335445     0.20800
F2163       F  0.46671140  0.89315951  0.88777092    -0.12100
F2164       F  0.44063388  0.89206361  0.94526770    -0.14400
F2165       F  0.48507100  0.96152600  0.85510718    -0.14400
F2166       F  0.45867610  0.96027861  0.91088926    -0.12100
C2167       C  0.47060751  0.94170320  0.62326317     0.25900
C2168       C  0.45187259  0.92359957  0.61864399    -0.22200
C2169       C  0.44767024  0.90708168  0.64386018     0.20800
C2170       C  0.46195385  0.90862011  0.67275167     0.25900
C2171       C  0.48063515  0.92683272  0.67737661    -0.22100
C2172       C  0.48477214  0.94324244  0.65198198     0.20800
F2173       F  0.50243618  0.96109695  0.65530356    -0.12100
F2174       F  0.47515438  0.95838000  0.60082540    -0.14400
F2175       F  0.45726521  0.89233795  0.69661703    -0.14400
F2176       F  0.42973876  0.88948236  0.64083199    -0.12100
C2177       C  0.41886635  0.97064530  0.65123234     0.25900
C2178       C  0.41614519  0.97341693  0.60969618    -0.22200
C2179       C  0.41970786  0.99243221  0.59678400     0.20800
C2180       C  0.42728981  0.00872815  0.62413073     0.25900
C2181       C  0.43188706  0.00644067  0.66486414    -0.22100
C2182       C  0.42673207  0.98696855  0.67844847     0.20800
F2183       F  0.43047806  0.98386915  0.71748532    -0.12100
F2184       F  0.41560268  0.95249497  0.66493151    -0.14400
F2185       F  0.43130523  0.02703109  0.60983523    -0.14400
F2186       F  0.41654065  0.99545399  0.55728902    -0.12100
C2187       C  0.87089566  0.32137828  0.80747556     0.25900
C2188       C  0.88236704  0.31222690  0.81747333    -0.22200
C2189       C  0.90305185  0.32211889  0.80705037     0.20800
C2190       C  0.91210700  0.34076831  0.78704594     0.25900
C2191       C  0.90057705  0.34976306  0.77610722    -0.22100
C2192       C  0.87987015  0.33988618  0.78658444     0.20800
F2193       F  0.86839191  0.34832632  0.77739049    -0.12100
F2194       F  0.85083105  0.31208190  0.81666599    -0.14400
F2195       F  0.93215276  0.34984465  0.77773033    -0.14400
F2196       F  0.91461380  0.31378347  0.81649941    -0.12100
C2197       C  0.99138426  0.23270548  0.62040168     0.25900
C2198       C  0.98239158  0.21235522  0.60805757    -0.22200
C2199       C  0.99314425  0.20204219  0.61402496     0.20800
C2200       C  0.01226573  0.21176106  0.63281528     0.25900
C2201       C  0.02111422  0.23205777  0.64538586    -0.22100
C2202       C  0.01054339  0.24245607  0.63852853     0.20800
F2203       F  0.01865747  0.26210709  0.64982341    -0.12100
F2204       F  0.98175302  0.24336870  0.61447489    -0.14400
F2205       F  0.02236856  0.20149206  0.63757796    -0.14400
F2206       F  0.98501831  0.18244361  0.60240975    -0.12100
C2207       C  0.90442953  0.23668983  0.50472098     0.25900
C2208       C  0.91236773  0.22500380  0.98876439    -0.22200
C2209       C  0.91360980  0.22369282  0.94600065     0.20800
C2210       C  0.90537983  0.23222180  0.92004248     0.25900
C2211       C  0.89588718  0.24244435  0.93610029    -0.22100
C2212       C  0.89641883  0.24545107  0.97870428     0.20800
F2213       F  0.88808559  0.25582150  0.99561857    -0.12100
F2214       F  0.90360356  0.23896523  0.54566652    -0.14400
F2215       F  0.90580577  0.22951068  0.87915820    -0.14400
F2216       F  0.92152581  0.21295675  0.92903802    -0.12100
C2217       C  0.87100790  0.11515645  0.70691444     0.25900
C2218       C  0.85639213  0.11894245  0.72433491    -0.22200
C2219       C  0.85612144  0.13656286  0.71279469     0.20800
C2220       C  0.86983930  0.14984625  0.68393600     0.25900
C2221       C  0.88428731  0.14594818  0.66588800    -0.22100
C2222       C  0.88485318  0.12853134  0.67808669     0.20800
F2223       F  0.89879578  0.12435474  0.66216725    -0.12100
F2224       F  0.87215067  0.09869258  0.71826402    -0.14400
F2225       F  0.86849935  0.16624394  0.67289251    -0.14400
F2226       F  0.84214182  0.14074646  0.72855099    -0.12100
C2227       C  0.87179069  0.11572863  0.91589520     0.25900
C2228       C  0.85183440  0.11247214  0.91548957    -0.22200
C2229       C  0.84601640  0.12138740  0.94607303     0.20800
C2230       C  0.85979758  0.13360130  0.97577371     0.25900
C2231       C  0.87998949  0.13752425  0.97553994    -0.22100
C2232       C  0.88576341  0.12823147  0.94550144     0.20800
F2233       F  0.90499410  0.13153194  0.94411510    -0.12100
F2234       F  0.87806618  0.10739417  0.88685282    -0.14400
F2235       F  0.85326333  0.14191835  0.00433849    -0.14400
F2236       F  0.82692732  0.11847150  0.94725525    -0.12100
C2237       C  0.67164068  0.10076451  0.57130212     0.25900
C2238       C  0.68354718  0.12192836  0.57216474    -0.22200
C2239       C  0.67609465  0.13353958  0.55390138     0.20800
C2240       C  0.65730246  0.12404289  0.53378260     0.25900
C2241       C  0.64551421  0.10278116  0.53239680    -0.22100
C2242       C  0.65282133  0.09130080  0.55196421     0.20800
F2243       F  0.64200671  0.07077796  0.05157775    -0.12100
F2244       F  0.67826894  0.08913936  0.58924051    -0.14400
F2245       F  0.65067663  0.13564717  0.51579168    -0.14400
F2246       F  0.68738420  0.15403462  0.55394213    -0.12100
C2247       C  0.79586890  0.21662503  0.75727843     0.25900
C2248       C  0.81536315  0.21884263  0.76003523    -0.22200
C2249       C  0.82101870  0.20889873  0.73136120     0.20800
C2250       C  0.80738908  0.19663657  0.70135512     0.25900
C2251       C  0.78765699  0.19390399  0.69935560    -0.22100
C2252       C  0.78217402  0.20425729  0.72735856     0.20800
F2253       F  0.76340553  0.20214778  0.72644774    -0.12100
F2254       F  0.78968404  0.22588013  0.78436434    -0.14400
F2255       F  0.81348080  0.18700834  0.67498974    -0.14400
F2256       F  0.83967533  0.21073687  0.73256736    -0.12100
C2257       C  0.80405368  0.19123709  0.95431242     0.25900
C2258       C  0.80740084  0.21106218  0.95009632    -0.22200
C2259       C  0.79645602  0.21715583  0.97509761     0.20800
C2260       C  0.78276980  0.20392162  0.00408841     0.25900
C2261       C  0.77981733  0.18428444  0.00905752    -0.22100
C2262       C  0.79044313  0.17803791  0.48341598     0.20800
F2263       F  0.78807299  0.15928099  0.48695486    -0.12100
F2264       F  0.81436503  0.18465352  0.93109375    -0.14400
F2265       F  0.77283968  0.21066531  0.02802048    -0.14400
F2266       F  0.79914346  0.23604737  0.97200837    -0.12100
C2267       C  0.76119852  0.09560118  0.67496694     0.25900
C2268       C  0.75272890  0.10690113  0.69032442    -0.22200
C2269       C  0.75106731  0.10812663  0.73303902     0.20800
C2270       C  0.75931217  0.09976431  0.75956594     0.25900
C2271       C  0.76916533  0.08977438  0.74403342    -0.22100
C2272       C  0.76922963  0.08707772  0.70142368     0.20800
F2273       F  0.77836150  0.07739703  0.68486902    -0.12100
F2274       F  0.76265847  0.09357710  0.63411453    -0.14400
F2275       F  0.75838467  0.10224050  0.80041118    -0.14400
F2276       F  0.74263229  0.11852963  0.74935295    -0.12100
C2277       C  0.54659975  0.67413932  0.96220900     0.25900
C2278       C  0.56678495  0.68310922  0.94845548    -0.22200
C2279       C  0.57793872  0.67342667  0.95634477     0.20800
C2280       C  0.56901971  0.65493793  0.97679300     0.25900
C2281       C  0.54880450  0.64582459  0.99041842    -0.22100
C2282       C  0.53773191  0.65572950  0.98343253     0.20800
F2283       F  0.51819785  0.64738261  0.99617703    -0.12100
F2284       F  0.53565217  0.68346209  0.95612845    -0.14400
F2285       F  0.58029884  0.64601795  0.98354405    -0.14400
F2286       F  0.59746975  0.68171628  0.94360344    -0.12100
C2287       C  0.75301226  0.76375287  0.64250571     0.25900
C2288       C  0.76392602  0.78484941  0.64767123    -0.22200
C2289       C  0.78390129  0.79585701  0.63270501     0.20800
C2290       C  0.79282745  0.78590894  0.61311985     0.25900
C2291       C  0.78204826  0.76471219  0.60887457    -0.22100
C2292       C  0.76199216  0.75379369  0.62360702     0.20800
F2293       F  0.75086385  0.73340276  0.61918924    -0.12100
F2294       F  0.73364074  0.75265796  0.65626818    -0.14400
F2295       F  0.81211832  0.79700293  0.59899392    -0.14400
F2296       F  0.79455671  0.81631969  0.63584817    -0.12100
C2297       C  0.68619275  0.77736007  0.81275404     0.25900
C2298       C  0.68331100  0.77490669  0.77014999    -0.22200
C2299       C  0.66360241  0.76227113  0.75519734     0.20800
C2300       C  0.64701955  0.75330801  0.78194266     0.25900
C2301       C  0.64972325  0.75688788  0.82439289    -0.22100
C2302       C  0.66961142  0.76852778  0.83949738     0.20800
F2303       F  0.67305543  0.77217071  0.88010759    -0.12100
F2304       F  0.70495352  0.78939091  0.82866862    -0.14400
F2305       F  0.62819302  0.74203605  0.76579176    -0.14400
F2306       F  0.66023132  0.75907570  0.71446862    -0.12100
C2307       C  0.56679135  0.90969530  0.71431807     0.25900
C2308       C  0.54709148  0.89980353  0.73090474    -0.22200
C2309       C  0.53516540  0.87862671  0.72725178     0.20800
C2310       C  0.54287759  0.86757966  0.70772863     0.25900
C2311       C  0.56276734  0.87748104  0.69225823    -0.22100
C2312       C  0.57458037  0.89863138  0.69553910     0.20800
F2313       F  0.59369897  0.90867321  0.68008740    -0.12100
F2314       F  0.57871189  0.93010385  0.71674511    -0.14400
F2315       F  0.53113420  0.84716492  0.70517204    -0.14400
F2316       F  0.51589242  0.86862868  0.74187038    -0.12100
C2317       C  0.60542591  0.80013816  0.55547118     0.25900
C2318       C  0.58706626  0.80000849  0.56182942    -0.22200
C2319       C  0.56999000  0.78677999  0.53868497     0.20800
C2320       C  0.57141474  0.77422609  0.00921487     0.25900
C2321       C  0.59001347  0.77481126  0.50222952    -0.22100
C2322       C  0.60687245  0.78773941  0.52617163     0.20800
F2323       F  0.62507762  0.78888950  0.52068491    -0.12100
F2324       F  0.62243772  0.81291348  0.57659247    -0.14400
F2325       F  0.55465117  0.76181214  0.98707909    -0.14400
F2326       F  0.55193865  0.78590960  0.54461255    -0.12100
C2327       C  0.57180624  0.78738571  0.75456271     0.25900
C2328       C  0.58714389  0.80793899  0.75374810    -0.22200
C2329       C  0.60191637  0.81529080  0.78456642     0.20800
C2330       C  0.60186292  0.80233829  0.81456229     0.25900
C2331       C  0.58719625  0.78154056  0.81418268    -0.22100
C2332       C  0.57189901  0.77430447  0.78436172     0.20800
F2333       F  0.55725661  0.75450039  0.78339340    -0.12100
F2334       F  0.55716421  0.77965512  0.72548680    -0.14400
F2335       F  0.61670438  0.81022729  0.84325399    -0.14400
F2336       F  0.61671071  0.83503859  0.78548881    -0.12100
C2337       C  0.78371985  0.99046199  0.89277539     0.25900
C2338       C  0.76270771  0.98013069  0.90075855    -0.22200
C2339       C  0.75131730  0.98906934  0.88836391     0.20800
C2340       C  0.76068989  0.00791474  0.86891890     0.25900
C2341       C  0.78164157  0.01820661  0.86084520    -0.22100
C2342       C  0.79303841  0.00919830  0.87257040     0.20800
F2343       F  0.81331512  0.01877896  0.86543652    -0.12100
F2344       F  0.79520356  0.98224393  0.90364644    -0.14400
F2345       F  0.74913605  0.01593666  0.85721865    -0.14400
F2346       F  0.73104284  0.97966663  0.89547382    -0.12100
C2347       C  0.75727449  0.88667538  0.55736904     0.25900
C2348       C  0.74375856  0.87932537  0.52425322    -0.22200
C2349       C  0.73057547  0.85823954  0.52064107     0.20800
C2350       C  0.72932025  0.84517082  0.55172557     0.25900
C2351       C  0.74163931  0.85275639  0.58643371    -0.22100
C2352       C  0.75630264  0.87350222  0.58805925     0.20800
F2353       F  0.76896222  0.88131637  0.62053121    -0.12100
F2354       F  0.77089576  0.90670877  0.56105979    -0.14400
F2355       F  0.71580047  0.82510166  0.54807084    -0.14400
F2356       F  0.71825821  0.85019941  0.98773752    -0.12100
C2357       C  0.72102109  0.86444166  0.78147665     0.25900
C2358       C  0.73795660  0.86167809  0.77827300    -0.22200
C2359       C  0.75446277  0.87258715  0.80466839     0.20800
C2360       C  0.75383740  0.88550172  0.83420774     0.25900
C2361       C  0.73646513  0.88743538  0.83867832    -0.22100
C2362       C  0.72024910  0.87703536  0.81146328     0.20800
F2363       F  0.70340184  0.87875245  0.81415593    -0.12100
F2364       F  0.70476096  0.85446302  0.75645066    -0.14400
F2365       F  0.77004728  0.89555144  0.85932853    -0.14400
F2366       F  0.77113515  0.87055912  0.80246940    -0.12100
C2367       C  0.68143843  0.90124356  0.56636518     0.25900
C2368       C  0.67923512  0.90314463  0.52413498    -0.22200
C2369       C  0.65982634  0.89755059  0.50907859     0.20800
C2370       C  0.64295026  0.88950385  0.53530932     0.25900
C2371       C  0.64498112  0.88628517  0.57706562    -0.22100
C2372       C  0.66457850  0.89294617  0.59241427     0.20800
F2373       F  0.66744892  0.89067501  0.63251365    -0.12100
F2374       F  0.69978636  0.90624093  0.58236573    -0.14400
F2375       F  0.62451952  0.88423091  0.51934992    -0.14400
F2376       F  0.65705111  0.89945513  0.96875921    -0.12100
loop_ 
_geom_bond_atom_site_label_1 
_geom_bond_atom_site_label_2 
_geom_bond_distance 
_geom_bond_site_symmetry_2 
_ccdc_geom_bond_type 
O1            C4   1.272       .  A
O1           Cd6   2.465       .  S
C2           O11   1.267       .  A
C2            O7   1.271       .  A
C2         C2368   1.492       .  S
O3            C9   1.275       .  A
O3           Cd6   2.491       .  S
C4           O12   1.265       .  A
C4         C1173   1.483       .  S
C5           O10   1.271       .  A
C5            O8   1.266       .  A
C5         C1150   1.488       .  S
Cd6          O13   2.395       .  S
Cd6          O12   2.421       .  S
Cd6          O11   2.456       .  S
Cd6           O7   2.503       .  S
Cd6          O10   2.503       .  S
Cd6           O8   2.445       .  S
C9           O13   1.263       .  A
C9         C2348   1.484       .  S
O14          C17   1.271       .  A
O14         Cd19   2.461       .  S
C15          O24   1.268       .  A
C15          O20   1.271       .  A
C15        C1183   1.494       .  S
O16          C22   1.276       .  A
O16         Cd19   2.509       .  S
C17          O25   1.266       .  A
C17        C1140   1.483       .  S
C18          O23   1.272       .  A
C18          O21   1.265       .  A
C18        C1123   1.477       .  S
Cd19         O26   2.357       .  S
Cd19         O25   2.442       .  S
Cd19         O24   2.467       .  S
Cd19         O20   2.467       .  S
Cd19         O23   2.493       .  S
Cd19         O21   2.409       .  S
C22          O26   1.263       .  A
C22        C1130   1.480       .  S
O27          C30   1.274       .  A
O27         Cd32   2.468       .  S
C28          O37   1.265       .  A
C28          O33   1.274       .  A
C28        C1163   1.479       .  S
O29          C35   1.276       .  A
O29         Cd32   2.485       .  S
C30          O38   1.268       .  A
C30        C1110   1.487       .  S
C31          O36   1.273       .  A
C31          O34   1.266       .  A
C31        C1100   1.481       .  S
Cd32         O39   2.394       .  S
Cd32         O38   2.428       .  S
Cd32         O37   2.417       .  S
Cd32         O33   2.467       .  S
Cd32         O36   2.485       .  S
Cd32         O34   2.426       .  S
C35          O39   1.265       .  A
C35        C1170   1.486       .  S
O40          C43   1.272       .  A
O40         Cd45   2.478       .  S
C41          O50   1.265       .  A
C41          O46   1.272       .  A
C41        C2321   1.483       .  S
O42          C48   1.275       .  A
O42         Cd45   2.490       .  S
C43          O51   1.267       .  A
C43        C1113   1.491       .  S
C44          O49   1.271       .  A
C44          O47   1.266       .  A
C44        C1090   1.476       .  S
Cd45         O52   2.373       .  S
Cd45         O51   2.448       .  S
Cd45         O50   2.428       .  S
Cd45         O46   2.448       .  S
Cd45         O49   2.478       .  S
Cd45         O47   2.419       .  S
C48          O52   1.263       .  A
C48        C1143   1.483       .  S
O53          C56   1.272       .  A
O53         Cd58   2.469       .  S
C54          O63   1.267       .  A
C54          O59   1.273       .  A
C54        C1080   1.487       .  S
O55          C61   1.275       .  A
O55         Cd58   2.480       .  S
C56          O64   1.265       .  A
C56        C2261   1.483       .  S
C57          O62   1.271       .  A
C57          O60   1.266       .  A
C57        C1050   1.476       .  S
Cd58         O65   2.384       .  S
Cd58         O64   2.412       .  S
Cd58         O63   2.439       .  S
Cd58         O59   2.456       .  S
Cd58         O62   2.489       .  S
Cd58         O60   2.415       .  S
C61          O65   1.263       .  A
C61        C1063   1.483       .  S
O66          C69   1.272       .  A
O66         Cd71   2.458       .  S
C67          O76   1.268       .  A
C67          O72   1.273       .  A
C67        C1083   1.488       .  S
O68          C74   1.275       .  A
O68         Cd71   2.500       .  S
C69          O77   1.265       .  A
C69        C1040   1.483       .  S
C70          O75   1.272       .  A
C70          O73   1.267       .  A
C70        C1153   1.484       .  S
Cd71         O78   2.400       .  S
Cd71         O77   2.435       .  S
Cd71         O76   2.430       .  S
Cd71         O72   2.482       .  S
Cd71         O75   2.495       .  S
Cd71         O73   2.447       .  S
C74          O78   1.264       .  A
C74        C1030   1.483       .  S
O79          C82   1.271       .  A
O79         Cd84   2.463       .  S
C80          O89   1.267       .  A
C80          O85   1.271       .  A
C80        C2208   1.487   1_554  S
O81          C87   1.272       .  A
O81         Cd84   2.495       .  S
C82          O90   1.266       .  A
C82        C1033   1.487       .  S
C83          O88   1.275       .  A
C83          O86   1.262       .  A
C83        C2231   1.485   1_554  S
Cd84         O91   2.423       .  S
Cd84         O90   2.448       .  S
Cd84         O89   2.443       .  S
Cd84         O85   2.473       .  S
Cd84         O88   2.512       .  S
Cd84         O86   2.361       .  S
C87          O91   1.265       .  A
C87        C1010   1.484       .  S
O92          C95   1.272       .  A
O92         Cd97   2.453       .  S
C93         O102   1.265       .  A
C93          O98   1.272       .  A
C93        C1060   1.482       .  S
O94         C100   1.275       .  A
O94         Cd97   2.475       .  S
C95         O103   1.268       .  A
C95        C1023   1.487       .  S
C96         O101   1.272       .  A
C96          O99   1.266       .  A
C96        C1000   1.479       .  S
Cd97        O104   2.390       .  S
Cd97        O103   2.440       .  S
Cd97        O102   2.419       .  S
Cd97         O98   2.464       .  S
Cd97        O101   2.480       .  S
Cd97         O99   2.419       .  S
C100        O104   1.264       .  A
C100       C1070   1.482       .  S
O105        C108   1.272       .  A
O105      Cd1298   2.449       .  S
C106        O115   1.268       .  A
C106        O111   1.273       .  A
C106        C990   1.484       .  S
O107       C1301   1.274   1_554  A
O107       Cd110   2.496       .  S
C108        O116   1.267       .  A
C108        C970   1.485       .  S
C109        O114   1.277       .  A
C109        O112   1.264       .  A
C109        C980   1.486       .  S
Cd110       O115   2.436       .  S
Cd110       O111   2.476       .  S
Cd110       O114   2.512       .  S
Cd110       O112   2.363       .  S
Cd110      O1293   2.449   1_554  S
Cd110      O1305   2.421   1_554  S
Cd110      O1304   2.435   1_554  S
C113        O117   1.266       .  A
C113       O1295   1.274       .  A
C113        C960   1.484       .  S
O116      Cd1298   2.435       .  S
O117      Cd1298   2.421       .  S
O118        C121   1.271       .  A
O118       Cd123   2.481       .  S
C119        O128   1.266       .  A
C119        O124   1.273       .  A
C119        C943   1.479       .  S
O120        C126   1.274       .  A
O120       Cd123   2.484       .  S
C121        O129   1.266       .  A
C121        C993   1.491       .  S
C122        O127   1.272       .  A
C122        O125   1.265       .  A
C122        C933   1.479       .  S
Cd123       O130   2.397       .  S
Cd123       O129   2.446       .  S
Cd123       O128   2.423       .  S
Cd123       O124   2.455       .  S
Cd123       O127   2.488       .  S
Cd123       O125   2.432       .  S
C126        O130   1.264       .  A
C126        C950   1.477       .  S
O131        C134   1.272       .  A
O131       Cd136   2.458       .  S
C132        O141   1.267       .  A
C132        O137   1.272       .  A
C132        C923   1.490       .  S
O133        C139   1.273       .  A
O133       Cd136   2.487       .  S
C134        O142   1.265       .  A
C134        C983   1.485       .  S
C135        O140   1.270       .  A
C135        O138   1.267       .  A
C135       C1120   1.481       .  S
Cd136       O143   2.385       .  S
Cd136       O142   2.437       .  S
Cd136       O141   2.439       .  S
Cd136       O137   2.483       .  S
Cd136       O140   2.465       .  S
Cd136       O138   2.433       .  S
C139        O143   1.263       .  A
C139        C973   1.479       .  S
O144        C147   1.271       .  A
O144      Cd1337   2.445   1_554  S
C145        O154   1.267       .  A
C145        O150   1.271       .  A
C145        C920   1.487       .  S
O146        C152   1.275       .  A
O146       Cd149   2.492       .  S
C147        O155   1.267       .  A
C147        C953   1.481       .  S
C148        O151   1.265       .  A
C148       O1341   1.272   1_554  A
C148       C1053   1.484       .  S
Cd149       O156   2.367       .  S
Cd149       O154   2.455       .  S
Cd149       O150   2.463       .  S
Cd149       O153   2.494       .  S
Cd149      O1332   2.445       .  S
Cd149      O1343   2.436       .  S
Cd149      O1339   2.403       .  S
O151      Cd1337   2.403   1_554  S
C152        O156   1.263       .  A
C152        C940   1.479       .  S
O153       C1336   1.272       .  A
O155      Cd1337   2.436   1_554  S
O157        C160   1.273       .  A
O157       Cd162   2.480       .  S
C158        O167   1.266       .  A
C158        O163   1.272       .  A
C158        C903   1.483       .  S
O159        C165   1.275       .  A
O159       Cd162   2.487       .  S
C160        O168   1.267       .  A
C160       C2101   1.487   1_554  S
C161        O166   1.272       .  A
C161        O164   1.267       .  A
C161       C1103   1.485       .  S
Cd162       O169   2.390       .  S
Cd162       O168   2.430       .  S
Cd162       O167   2.424       .  S
Cd162       O163   2.461       .  S
Cd162       O166   2.494       .  S
Cd162       O164   2.427       .  S
C165        O169   1.264       .  A
C165       C2081   1.485   1_554  S
O170        C173   1.272       .  A
O170       Cd175   2.476       .  S
C171        O180   1.266       .  A
C171        O176   1.273       .  A
C171        C870   1.483       .  S
O172        C178   1.274       .  A
O172       Cd175   2.476       .  S
C173        O181   1.266       .  A
C173        C910   1.489       .  S
C174        O179   1.272       .  A
C174        O177   1.266       .  A
C174        C860   1.478       .  S
Cd175       O182   2.396       .  S
Cd175       O181   2.436       .  S
Cd175       O180   2.417       .  S
Cd175       O176   2.464       .  S
Cd175       O179   2.475       .  S
Cd175       O177   2.414       .  S
C178        O182   1.265       .  A
C178        C880   1.482       .  S
O183        C186   1.272       .  A
O183       Cd188   2.463       .  S
C184        O193   1.265       .  A
C184        O189   1.271       .  A
C184        C850   1.486       .  S
O185        C191   1.274       .  A
O185       Cd188   2.485       .  S
C186        O194   1.266       .  A
C186        C890   1.483       .  S
C187        O192   1.271       .  A
C187        O190   1.266       .  A
C187        C840   1.479       .  S
Cd188       O195   2.390       .  S
Cd188       O194   2.419       .  S
Cd188       O193   2.429       .  S
Cd188       O189   2.472       .  S
Cd188       O192   2.488       .  S
Cd188       O190   2.423       .  S
C191        O195   1.264       .  A
C191        C900   1.484       .  S
O196        C199   1.271       .  A
O196       Cd201   2.463       .  S
C197        O206   1.267       .  A
C197        O202   1.272       .  A
C197        C853   1.482       .  S
O198        C204   1.276       .  A
O198       Cd201   2.507       .  S
C199        O207   1.266       .  A
C199        C883   1.484       .  S
C200        O205   1.272       .  A
C200        O203   1.266       .  A
C200        C830   1.486       .  S
Cd201       O208   2.390       .  S
Cd201       O207   2.421       .  S
Cd201       O206   2.430       .  S
Cd201       O202   2.459       .  S
Cd201       O205   2.492       .  S
Cd201       O203   2.435       .  S
C204        O208   1.263       .  A
C204        C873   1.488       .  S
O209        C212   1.271       .  A
O209       Cd214   2.459       .  S
C210        O219   1.268       .  A
C210        O215   1.271       .  A
C210        C823   1.489       .  S
O211        C217   1.276       .  A
O211       Cd214   2.509       .  S
C212        O220   1.265       .  A
C212        C810   1.481       .  S
C213        O218   1.272       .  A
C213        O216   1.266       .  A
C213        C790   1.489       .  S
Cd214       O221   2.375       .  S
Cd214       O220   2.424       .  S
Cd214       O219   2.450       .  S
Cd214       O215   2.468       .  S
Cd214       O218   2.509       .  S
Cd214       O216   2.439       .  S
C217        O221   1.263       .  A
C217        C800   1.483       .  S
O222        C225   1.271       .  A
O222      Cd1415   2.447   1_554  S
C223        O232   1.268       .  A
C223        O228   1.271       .  A
C223        C820   1.485       .  S
O224        C230   1.275       .  A
O224       Cd227   2.504       .  S
C225        O233   1.265       .  A
C225        C783   1.479       .  S
C226        O229   1.266       .  A
C226       O1419   1.271   1_554  A
C226        C760   1.486       .  S
Cd227       O234   2.378       .  S
Cd227       O232   2.436       .  S
Cd227       O228   2.462       .  S
Cd227       O231   2.501       .  S
Cd227      O1410   2.447       .  S
Cd227      O1421   2.413       .  S
Cd227      O1417   2.422       .  S
O229      Cd1415   2.422   1_554  S
C230        O234   1.263       .  A
C230        C773   1.483       .  S
O231       C1414   1.271       .  A
O233      Cd1415   2.413   1_554  S
O235        C238   1.271       .  A
O235       Cd240   2.474       .  S
C236        O245   1.265       .  A
C236        O241   1.272       .  A
C236        C803   1.484       .  S
O237        C243   1.274       .  A
O237       Cd240   2.480       .  S
C238        O246   1.267       .  A
C238        C753   1.487       .  S
C239        O242   1.266       .  A
C239       O1432   1.271       .  A
C239       C1093   1.479       .  S
Cd240       O247   2.380       .  S
Cd240       O246   2.440       .  S
Cd240       O244   2.484       .  S
Cd240      O1433   2.428   1_554  S
Cd240      O1429   2.458   1_554  S
Cd240      O1430   2.409   1_554  S
O241      Cd1428   2.458       .  S
O242      Cd1428   2.409       .  S
C243        O247   1.264       .  A
C243        C813   1.482       .  S
O244       C1427   1.271       .  A
O245      Cd1428   2.428       .  S
O248        C251   1.271       .  A
O248       Cd253   2.465       .  S
C249        O258   1.267       .  A
C249        O254   1.272       .  A
C249        C770   1.485       .  S
O250        C256   1.275       .  A
O250       Cd253   2.483       .  S
C251        O259   1.266       .  A
C251        C750   1.487       .  S
C252        O257   1.271       .  A
C252        O255   1.264       .  A
C252        C863   1.468       .  S
Cd253       O260   2.366       .  S
Cd253       O259   2.444       .  S
Cd253       O258   2.442       .  S
Cd253       O254   2.440       .  S
Cd253       O257   2.475       .  S
Cd253       O255   2.402       .  S
C256        O260   1.263       .  A
C256        C780   1.480       .  S
O261        C264   1.272       .  A
O261       Cd266   2.462       .  S
C262        O271   1.266       .  A
C262        O267   1.270       .  A
C262        C740   1.489       .  S
O263        C269   1.274       .  A
O263       Cd266   2.493       .  S
C264        O272   1.266       .  A
C264        C730   1.484       .  S
C265        O270   1.271       .  A
C265        O268   1.265       .  A
C265        C710   1.479       .  S
Cd266       O273   2.390       .  S
Cd266       O272   2.418       .  S
Cd266       O271   2.453       .  S
Cd266       O267   2.475       .  S
Cd266       O270   2.496       .  S
Cd266       O268   2.420       .  S
C269        O273   1.263       .  A
C269        C723   1.484       .  S
O274        C277   1.272       .  A
O274       Cd279   2.446       .  S
C275        O284   1.265       .  A
C275        O280   1.271       .  A
C275       C1931   1.487       .  S
O276        C282   1.275       .  A
O276       Cd279   2.501       .  S
C277        O285   1.267       .  A
C277        C700   1.484       .  S
C278        O283   1.272       .  A
C278        O281   1.265       .  A
C278        C843   1.478       .  S
Cd279       O286   2.373       .  S
Cd279       O285   2.436       .  S
Cd279       O284   2.441       .  S
Cd279       O280   2.481       .  S
Cd279       O283   2.486       .  S
Cd279       O281   2.436       .  S
C282        O286   1.263       .  A
C282       C1878   1.484       .  S
O287        C290   1.272       .  A
O287       Cd292   2.473       .  S
C288        O297   1.266       .  A
C288        O293   1.272       .  A
C288       C1908   1.483       .  S
O289        C295   1.275       .  A
O289       Cd292   2.490       .  S
C290        O298   1.267       .  A
C290        C680   1.489       .  S
C291        O296   1.272       .  A
C291        O294   1.266       .  A
C291        C963   1.486       .  S
Cd292       O299   2.395       .  S
Cd292       O298   2.445       .  S
Cd292       O297   2.434       .  S
Cd292       O293   2.468       .  S
Cd292       O296   2.495       .  S
Cd292       O294   2.435       .  S
C295        O299   1.264       .  A
C295        C733   1.485       .  S
O300        C303   1.270       .  A
O300       Cd305   2.481       .  S
C301        O310   1.267       .  A
C301        O306   1.272       .  A
C301        C693   1.481       .  S
O302        C308   1.275       .  A
O302       Cd305   2.504       .  S
C303        O311   1.266       .  A
C303        C683   1.489       .  S
C304        O309   1.272       .  A
C304        O307   1.265       .  A
C304        C670   1.481       .  S
Cd305       O312   2.380       .  S
Cd305       O311   2.446       .  S
Cd305       O310   2.437       .  S
Cd305       O306   2.450       .  S
Cd305       O309   2.494       .  S
Cd305       O307   2.431       .  S
C308        O312   1.263       .  A
C308        C703   1.486       .  S
O313        C316   1.273       .  A
O313       Cd318   2.469       .  S
C314        O323   1.265       .  A
C314        O319   1.273       .  A
C314       C1831   1.486       .  S
O315        C321   1.276       .  A
O315       Cd318   2.476       .  S
C316        O324   1.268       .  A
C316        C660   1.490       .  S
C317        O322   1.271       .  A
C317        O320   1.266       .  A
C317        C630   1.478       .  S
Cd318       O325   2.385       .  S
Cd318       O324   2.447       .  S
Cd318       O323   2.433       .  S
Cd318       O319   2.462       .  S
Cd318       O322   2.490       .  S
Cd318       O320   2.426       .  S
C321        O325   1.264       .  A
C321        C650   1.481       .  S
O326        C329   1.272       .  A
O326       Cd331   2.485       .  S
C327        O336   1.265       .  A
C327        O332   1.271       .  A
C327        C610   1.482       .  S
O328        C334   1.275       .  A
O328       Cd331   2.489       .  S
C329        O337   1.267       .  A
C329        C663   1.492       .  S
C330        O335   1.271       .  A
C330        O333   1.266       .  A
C330       C1013   1.482       .  S
Cd331       O338   2.375       .  S
Cd331       O337   2.445       .  S
Cd331       O336   2.434       .  S
Cd331       O332   2.455       .  S
Cd331       O335   2.489       .  S
Cd331       O333   2.426       .  S
C334        O338   1.264       .  A
C334        C620   1.480       .  S
O339        C342   1.272       .  A
O339       Cd344   2.455       .  S
C340        O349   1.268       .  A
C340        O345   1.272       .  A
C340        C603   1.487       .  S
O341        C347   1.276       .  A
O341       Cd344   2.502       .  S
C342        O350   1.265       .  A
C342        C653   1.481       .  S
C343        O348   1.272       .  A
C343        O346   1.266       .  A
C343        C793   1.483       .  S
Cd344       O351   2.384       .  S
Cd344       O350   2.413       .  S
Cd344       O349   2.443       .  S
Cd344       O345   2.467       .  S
Cd344       O348   2.499       .  S
Cd344       O346   2.427       .  S
C347        O351   1.264       .  A
C347        C640   1.485       .  S
O352        C355   1.272       .  A
O352       Cd357   2.445       .  S
C353        O362   1.268       .  A
C353        O358   1.271       .  A
C353       C1788   1.488       .  S
O354        C360   1.275       .  A
O354       Cd357   2.491       .  S
C355        O363   1.265       .  A
C355        C623   1.480       .  S
C356        O361   1.271       .  A
C356        O359   1.267       .  A
C356        C593   1.477       .  S
Cd357       O364   2.367       .  S
Cd357       O363   2.408       .  S
Cd357       O362   2.442       .  S
Cd357       O358   2.468       .  S
Cd357       O361   2.476       .  S
Cd357       O359   2.420       .  S
C360        O364   1.263       .  A
C360       C1801   1.477       .  S
O365        C368   1.270       .  A
O365       Cd370   2.449       .  S
C366        O375   1.268       .  A
C366        O371   1.271       .  A
C366        C580   1.483       .  S
O367        C373   1.276       .  A
O367       Cd370   2.495       .  S
C368        O376   1.266       .  A
C368        C570   1.481       .  S
C369        O374   1.273       .  A
C369        O372   1.264       .  A
C369        C590   1.479       .  S
Cd370       O377   2.371       .  S
Cd370       O376   2.434       .  S
Cd370       O375   2.444       .  S
Cd370       O371   2.439       .  S
Cd370       O374   2.494       .  S
Cd370       O372   2.401       .  S
C373        O377   1.263       .  A
C373        C560   1.481       .  S
O378        C381   1.270       .  A
O378       Cd383   2.456       .  S
C379        O388   1.265       .  A
C379        O384   1.270       .  A
C379        C550   1.482       .  S
O380        C386   1.271       .  A
O380       Cd383   2.509       .  S
C381        O389   1.268       .  A
C381        C583   1.482       .  S
C382        O387   1.275       .  A
C382        O385   1.263       .  A
C382        C540   1.486       .  S
Cd383       O390   2.419       .  S
Cd383       O389   2.442       .  S
Cd383       O388   2.427       .  S
Cd383       O384   2.466       .  S
Cd383       O387   2.516       .  S
Cd383       O385   2.380       .  S
C386        O390   1.265       .  A
C386        C763   1.482       .  S
O391        C394   1.269       .  A
O391       Cd396   2.463       .  S
C392        O401   1.267       .  A
C392        O397   1.272       .  A
C392        C563   1.480       .  S
O393        C399   1.274       .  A
O393       Cd396   2.500   1_556  S
C394        O402   1.266   1_554  A
C394       C1721   1.484   1_554  S
C395        O400   1.272       .  A
C395        O398   1.264       .  A
C395        C673   1.479       .  S
Cd396       O403   2.399       .  S
Cd396       O402   2.443   1_554  S
Cd396       O401   2.411       .  S
Cd396       O397   2.439       .  S
Cd396       O400   2.493       .  S
Cd396       O398   2.424       .  S
C399        O403   1.263   1_556  A
C399       C1761   1.486       .  S
O404        C407   1.270       .  A
O404       Cd409   2.465       .  S
C405        O414   1.268       .  A
C405        O410   1.272       .  A
C405        C543   1.485       .  S
O406        C412   1.275       .  A
O406       Cd409   2.493       .  S
C407        O415   1.266       .  A
C407        C530   1.484       .  S
C408        O413   1.273       .  A
C408        O411   1.265       .  A
C408        C930   1.483       .  S
Cd409       O416   2.396       .  S
Cd409       O415   2.441       .  S
Cd409       O414   2.442       .  S
Cd409       O410   2.441       .  S
Cd409       O413   2.497       .  S
Cd409       O411   2.424       .  S
C412        O416   1.264       .  A
C412        C553   1.486       .  S
O417        C420   1.272       .  A
O417       Cd422   2.462       .  S
C418        O427   1.268       .  A
C418        O423   1.271       .  A
C418        C523   1.488       .  S
O419        C425   1.273       .  A
O419       Cd422   2.494       .  S
C420        O428   1.266       .  A
C420        C500   1.480       .  S
C421        O426   1.276       .  A
C421        O424   1.263       .  A
C421        C513   1.487       .  S
Cd422       O429   2.424       .  S
Cd422       O428   2.423       .  S
Cd422       O427   2.455       .  S
Cd422       O423   2.456       .  S
Cd422       O426   2.505       .  S
Cd422       O424   2.381       .  S
C425        O429   1.265       .  A
C425       C1003   1.483       .  S
O430        C433   1.272       .  A
O430       Cd435   2.474       .  S
C431        O440   1.265       .  A
C431        O436   1.272       .  A
C431        C480   1.484       .  S
O432        C438   1.275       .  A
O432       Cd435   2.495       .  S
C433        O441   1.267       .  A
C433        C520   1.488       .  S
C434        O437   1.266       .  A
C434       O1627   1.272       .  A
C434        C633   1.486       .  S
Cd435       O442   2.367       .  S
Cd435       O441   2.446       .  S
Cd435       O439   2.491       .  S
Cd435      O1628   2.432   1_554  S
Cd435      O1624   2.461   1_554  S
Cd435      O1625   2.422   1_554  S
O436      Cd1623   2.461       .  S
O437      Cd1623   2.422       .  S
C438        O442   1.263       .  A
C438        C490   1.481       .  S
O439       C1622   1.272   1_554  A
O440      Cd1623   2.432       .  S
O443        C446   1.273       .  A
O443      Cd1636   2.466   1_554  S
C444        O453   1.267       .  A
C444        O449   1.273       .  A
C444        C470   1.490       .  S
O445        C451   1.275       .  A
O445       Cd448   2.481       .  S
C446        O454   1.265       .  A
C446        C510   1.483       .  S
C447        O450   1.266       .  A
C447       O1640   1.272   1_554  A
C447        C833   1.484       .  S
Cd448       O455   2.391       .  S
Cd448       O453   2.438       .  S
Cd448       O449   2.477       .  S
Cd448       O452   2.494       .  S
Cd448      O1631   2.466       .  S
Cd448      O1642   2.427       .  S
Cd448      O1638   2.434       .  S
O450      Cd1636   2.434   1_554  S
C451        O455   1.264       .  A
C451        C503   1.484       .  S
O452       C1635   1.272       .  A
O454      Cd1636   2.427   1_554  S
O456        C459   1.272       .  A
O456       Cd461   2.432       .  S
C457        O466   1.266       .  A
C457        O462   1.271       .  A
C457        C473   1.487       .  S
O458        C464   1.275       .  A
O458       Cd461   2.482       .  S
C459        O467   1.268       .  A
C459        C493   1.482       .  S
C460        O465   1.272       .  A
C460        O463   1.265       .  A
C460        C713   1.475       .  S
Cd461       O468   2.381       .  S
Cd461       O467   2.428       .  S
Cd461       O466   2.437       .  S
Cd461       O462   2.478       .  S
Cd461       O465   2.478       .  S
Cd461       O463   2.422       .  S
C464        O468   1.263       .  A
C464        C483   1.483       .  S
C469        C470   1.413       .  A
C469        C474   1.401       .  A
C469        F476   1.358       .  S
C470        C471   1.407   1_655  A
C471        C472   1.400       .  A
C471        F478   1.358       .  S
C472        C473   1.411       .  A
C472        F477   1.358       .  S
C473        C474   1.406   1_455  A
C474        F475   1.358       .  S
C479        C480   1.405       .  A
C479        C484   1.395       .  A
C479        F486   1.358       .  S
C480        C481   1.412       .  A
C481        C482   1.400       .  A
C481        F488   1.357       .  S
C482        C483   1.405       .  A
C482        F487   1.358       .  S
C483        C484   1.413       .  A
C484        F485   1.358       .  S
C489        C490   1.406       .  A
C489        C494   1.402       .  A
C489        F496   1.358       .  S
C490        C491   1.411       .  A
C491        C492   1.392       .  A
C491        F498   1.358       .  S
C492        C493   1.405       .  A
C492        F497   1.358       .  S
C493        C494   1.413       .  A
C494        F495   1.358       .  S
C499        C500   1.403       .  A
C499        C504   1.397       .  A
C499        F506   1.358       .  S
C500        C501   1.410       .  A
C501        C502   1.399       .  A
C501        F508   1.358       .  S
C502        C503   1.406       .  A
C502        F507   1.358       .  S
C503        C504   1.414       .  A
C504        F505   1.358       .  S
C509        C510   1.403       .  A
C509        C514   1.396       .  A
C509        F516   1.358       .  S
C510        C511   1.412       .  A
C511        C512   1.402       .  A
C511        F518   1.358       .  S
C512        C513   1.406       .  A
C512        F517   1.358       .  S
C513        C514   1.414       .  A
C514        F515   1.358       .  S
C519        C520   1.411       .  A
C519        C524   1.400       .  A
C519        F526   1.358       .  S
C520        C521   1.407   1_455  A
C521        C522   1.402       .  A
C521        F528   1.358       .  S
C522        C523   1.411       .  A
C522        F527   1.358       .  S
C523        C524   1.406   1_655  A
C524        F525   1.358       .  S
C529        C530   1.411       .  A
C529        C534   1.399       .  A
C529        F536   1.358       .  S
C530        C531   1.406       .  A
C531        C532   1.399       .  A
C531        F538   1.358       .  S
C532        C533   1.410       .  A
C532        F537   1.358       .  S
C533       C1582   1.484       .  S
C533        C534   1.406       .  A
C534       F1723   1.358       .  S
F535       C1722   1.358       .  S
C539        C540   1.407       .  A
C539        C544   1.403       .  A
C539        F546   1.357       .  S
C540        C541   1.412       .  A
C541        C542   1.394       .  A
C541        F548   1.358       .  S
C542        C543   1.405       .  A
C542        F547   1.358       .  S
C543        C544   1.413       .  A
C544        F545   1.358       .  S
C549        C554   1.399       .  A
C549       C1738   1.410       .  A
C549        F556   1.358       .  S
C550        C551   1.404   1_554  A
C550       C1737   1.410       .  A
C551       C1740   1.398       .  A
C551        F558   1.358       .  S
C552        C553   1.414       .  A
C552       C1739   1.398       .  A
C552        F557   1.358       .  S
C553        C554   1.406       .  A
C554        F555   1.357       .  S
C559        C560   1.412       .  A
C559        C564   1.394       .  A
C559        F566   1.358       .  S
C560        C561   1.404       .  A
C561        C562   1.399       .  A
C561        F568   1.357       .  S
C562        C563   1.412       .  A
C562        F567   1.358       .  S
C563        C564   1.405       .  A
C564        F565   1.358       .  S
C569        C570   1.404       .  A
C569        C574   1.396       .  A
C569        F576   1.358       .  S
C570        C571   1.411       .  A
C571        C572   1.400       .  A
C571        F578   1.358       .  S
C572        C573   1.406       .  A
C572        F577   1.357       .  S
C573       C1587   1.486       .  S
C573        C574   1.413       .  A
C574       F1763   1.358       .  S
F575       C1762   1.358       .  S
C579        C580   1.411       .  A
C579        C584   1.400       .  A
C579        F586   1.358       .  S
C580        C581   1.407       .  A
C581        C582   1.397       .  A
C581        F588   1.358       .  S
C582        C583   1.409       .  A
C582        F587   1.358       .  S
C583        C584   1.406       .  A
C584        F585   1.358       .  S
C589        C590   1.407       .  A
C589        C594   1.403       .  A
C589        F596   1.358       .  S
C590        C591   1.408       .  A
C591        C592   1.395       .  A
C591        F598   1.358       .  S
C592        C593   1.405       .  A
C592        F597   1.358       .  S
C593        C594   1.407       .  A
C594        F595   1.358       .  S
C599        C600   1.407       .  A
C599        C604   1.401       .  A
C599       F1794   1.358   1_554  S
C600       C1541   1.488   1_554  S
C600        C601   1.411       .  A
C601        C602   1.400       .  A
C601        F608   1.358       .  S
C602        C603   1.407       .  A
C602        F607   1.358       .  S
C603        C604   1.411       .  A
C604        F605   1.358       .  S
F606       C1787   1.358       .  S
C609        C610   1.405       .  A
C609        C614   1.393       .  A
C609        F616   1.358       .  S
C610        C611   1.413       .  A
C611        C612   1.401       .  A
C611        F618   1.358       .  S
C612        C613   1.404       .  A
C612        F617   1.358       .  S
C613       C1548   1.477   1_554  S
C613        C614   1.410       .  A
C614       F1803   1.358       .  S
F615       C1802   1.358       .  S
C619        C620   1.404       .  A
C619        C624   1.399       .  A
C619        F626   1.358       .  S
C620        C621   1.411       .  A
C621        C622   1.393       .  A
C621        F628   1.358       .  S
C622        C623   1.404       .  A
C622        F627   1.358       .  S
C623        C624   1.413       .  A
C624        F625   1.358       .  S
C629        C630   1.407       .  A
C629        C634   1.404       .  A
C629        F636   1.358       .  S
C630        C631   1.404       .  A
C631        C632   1.396       .  A
C631        F638   1.358       .  S
C632        C633   1.410       .  A
C632       F1825   1.358       .  S
C633        C634   1.410       .  A
C634        F635   1.358       .  S
F637       C1820   1.358       .  S
C639        C640   1.412       .  A
C639        C644   1.395       .  A
C639        F646   1.358       .  S
C640        C641   1.405       .  A
C641       C1830   1.402       .  A
C641        F648   1.358       .  S
C642       C1829   1.402       .  A
C642       C1831   1.414       .  A
C642        F647   1.358       .  S
C643       C1502   1.486       .  S
C643        C644   1.405   1_556  A
C643       C1830   1.414   1_556  A
C644        F645   1.358       .  S
C649        C650   1.413       .  A
C649        C654   1.396       .  A
C649        F656   1.358       .  S
C650        C651   1.404       .  A
C651        C652   1.398       .  A
C651        F658   1.358       .  S
C652        C653   1.412       .  A
C652        F657   1.358       .  S
C653        C654   1.405       .  A
C654        F655   1.358       .  S
C659        C660   1.412       .  A
C659        C664   1.403       .  A
C659        F666   1.358       .  S
C660        C661   1.406       .  A
C661        C662   1.401       .  A
C661        F668   1.358       .  S
C662        C663   1.412       .  A
C662        F667   1.358       .  S
C663        C664   1.408       .  A
C664        F665   1.358       .  S
C669        C670   1.410       .  A
C669        C674   1.400       .  A
C669        F676   1.358       .  S
C670        C671   1.405       .  A
C671        C672   1.401   1_565  A
C671        F678   1.358       .  S
C672        C673   1.409       .  A
C672        F677   1.358       .  S
C673        C674   1.403   1_545  A
C674        F675   1.358       .  S
C679        C680   1.412       .  A
C679        C684   1.402       .  A
C679        F686   1.358       .  S
C680        C681   1.406       .  A
C681        C682   1.401       .  A
C681        F688   1.358       .  S
C682        C683   1.411       .  A
C682        F687   1.358       .  S
C683        C684   1.408       .  A
C684        F685   1.358       .  S
C689        C690   1.406       .  A
C689        C694   1.402       .  A
C689        F696   1.358       .  S
C690       C1470   1.484       .  S
C690        C691   1.412       .  A
C691        C692   1.394       .  A
C691        F698   1.358       .  S
C692        C693   1.403       .  A
C692        F697   1.358       .  S
C693        C694   1.411       .  A
C694        F695   1.358       .  S
C699        C700   1.412       .  A
C699        C704   1.402       .  A
C699        F706   1.358       .  S
C700        C701   1.405       .  A
C701        C702   1.394       .  A
C701        F708   1.358       .  S
C702        C703   1.412       .  A
C702        F707   1.358       .  S
C703        C704   1.407       .  A
C704        F705   1.358       .  S
C709        C710   1.409       .  A
C709        C714   1.398       .  A
C709        F716   1.358       .  S
C710        C711   1.405       .  A
C711        C712   1.401       .  A
C711        F718   1.358       .  S
C712        C713   1.409       .  A
C712        F717   1.358       .  S
C713        C714   1.402       .  A
C714        F715   1.358       .  S
C719        C720   1.412       .  A
C719        C724   1.400   1_556  A
C719        F726   1.358       .  S
C720       C1476   1.483       .  S
C720        C721   1.404   1_556  A
C721        C722   1.396       .  A
C721        F728   1.358       .  S
C722        C723   1.412       .  A
C722        F727   1.358       .  S
C723        C724   1.406       .  A
C724        F725   1.358       .  S
C729        C730   1.412       .  A
C729        C734   1.399       .  A
C729        F736   1.358       .  S
C730        C731   1.405       .  A
C731        C732   1.397       .  A
C731        F738   1.358       .  S
C732        C733   1.413       .  A
C732        F737   1.358       .  S
C733        C734   1.405       .  A
C734        F735   1.357       .  S
C739        C740   1.407       .  A
C739        C744   1.400       .  A
C739        F746   1.358       .  S
C740        C741   1.412       .  A
C741        C742   1.401   1_554  A
C741        F748   1.358       .  S
C742        C743   1.406   1_556  A
C742       F1935   1.358       .  S
C743       C1463   1.487   1_554  S
C743        C744   1.411       .  A
C744        F745   1.358       .  S
F747       C1930   1.358       .  S
C749        C750   1.407       .  A
C749        C754   1.399       .  A
C749        F756   1.358       .  S
C750        C751   1.412       .  A
C751        C752   1.401       .  A
C751        F758   1.358       .  S
C752        C753   1.407       .  A
C752        F757   1.358       .  S
C753        C754   1.411       .  A
C754        F755   1.358       .  S
C759        C760   1.410       .  A
C759        C764   1.406       .  A
C759        F766   1.358       .  S
C760        C761   1.408       .  A
C761        C762   1.396       .  A
C761        F768   1.358       .  S
C762        C763   1.406       .  A
C762        F767   1.358       .  S
C763        C764   1.408       .  A
C764        F765   1.358       .  S
C769        C770   1.413       .  A
C769        C774   1.403       .  A
C769        F776   1.358       .  S
C770        C771   1.405       .  A
C771        C772   1.394       .  A
C771        F778   1.358       .  S
C772        C773   1.411       .  A
C772        F777   1.358       .  S
C773        C774   1.405       .  A
C774        F775   1.358       .  S
C779        C780   1.412       .  A
C779        C784   1.393       .  A
C779        F786   1.358       .  S
C780        C781   1.405       .  A
C781        C782   1.398       .  A
C781        F788   1.358       .  S
C782        C783   1.411       .  A
C782        F787   1.358       .  S
C783        C784   1.404       .  A
C784        F785   1.358       .  S
C789        C790   1.410       .  A
C789        C794   1.398       .  A
C789        F796   1.358       .  S
C790        C791   1.410       .  A
C791        C792   1.406       .  A
C791        F798   1.357       .  S
C792        C793   1.408       .  A
C792        F797   1.358       .  S
C793        C794   1.406       .  A
C794        F795   1.358       .  S
C799        C800   1.405       .  A
C799        C804   1.402       .  A
C799        F806   1.358       .  S
C800        C801   1.412       .  A
C801        C802   1.394       .  A
C801        F808   1.358       .  S
C802        C803   1.405       .  A
C802        F807   1.358       .  S
C803        C804   1.414       .  A
C804        F805   1.358       .  S
C809        C810   1.404       .  A
C809        C814   1.395       .  A
C809        F816   1.358       .  S
C810        C811   1.411       .  A
C811        C812   1.399       .  A
C811        F818   1.358       .  S
C812        C813   1.405       .  A
C812        F817   1.358       .  S
C813        C814   1.412       .  A
C814        F815   1.358       .  S
C819        C820   1.407       .  A
C819        C824   1.401       .  A
C819        F826   1.358       .  S
C820        C821   1.410       .  A
C821        C822   1.399       .  A
C821        F828   1.358       .  S
C822        C823   1.408       .  A
C822        F827   1.358       .  S
C823        C824   1.412       .  A
C824        F825   1.358       .  S
C829        C830   1.409       .  A
C829        C834   1.399       .  A
C829        F836   1.358       .  S
C830        C831   1.409       .  A
C831        C832   1.404       .  A
C831        F838   1.357       .  S
C832        C833   1.407       .  A
C832        F837   1.357       .  S
C833        C834   1.407       .  A
C834        F835   1.358       .  S
C839        C840   1.406       .  A
C839        C844   1.402   1_655  A
C839        F846   1.358       .  S
C840        C841   1.409       .  A
C841        C842   1.398       .  A
C841        F848   1.358       .  S
C842        C843   1.403   1_655  A
C842        F847   1.358       .  S
C843        C844   1.409       .  A
C844        F845   1.358       .  S
C849        C850   1.412       .  A
C849        C854   1.399       .  A
C849        F856   1.358       .  S
C850        C851   1.407       .  A
C851        C852   1.399       .  A
C851        F858   1.358       .  S
C852        C853   1.410       .  A
C852        F857   1.358       .  S
C853        C854   1.405       .  A
C854        F855   1.358       .  S
C859        C860   1.411       .  A
C859        C864   1.398       .  A
C859        F866   1.358       .  S
C860        C861   1.406       .  A
C861        C862   1.398       .  A
C861        F868   1.358       .  S
C862        C863   1.406       .  A
C862        F867   1.358       .  S
C863        C864   1.401       .  A
C864        F865   1.358       .  S
C869        C870   1.412       .  A
C869        C874   1.401       .  A
C869        F876   1.358       .  S
C870        C871   1.404       .  A
C871        C872   1.397       .  A
C871        F878   1.358       .  S
C872        C873   1.414       .  A
C872        F877   1.358       .  S
C873        C874   1.406       .  A
C874        F875   1.357       .  S
C879        C880   1.411       .  A
C879       C2072   1.397       .  A
C879        F886   1.358       .  S
C880        C881   1.405       .  A
C881        C882   1.399       .  A
C881        F888   1.358       .  S
C882       C2071   1.412       .  A
C882        F887   1.358       .  S
C883        C884   1.407   1_554  A
C883       C2070   1.412   1_554  A
C884       C2067   1.397       .  A
C884        F885   1.358       .  S
C889        C890   1.411       .  A
C889        C894   1.399       .  A
C889        F896   1.358       .  S
C890        C891   1.405       .  A
C891        C892   1.397       .  A
C891        F898   1.358       .  S
C892        C893   1.413       .  A
C892        F897   1.358       .  S
C893       C1353   1.485       .  S
C893        C894   1.405       .  A
C894       F2083   1.358       .  S
F895       C2082   1.358       .  S
C899        C900   1.406       .  A
C899        C904   1.400       .  A
C899        F906   1.358       .  S
C900        C901   1.412       .  A
C901        C902   1.396       .  A
C901        F908   1.358       .  S
C902        C903   1.405       .  A
C902        F907   1.358       .  S
C903        C904   1.412       .  A
C904        F905   1.358       .  S
C909        C910   1.413       .  A
C909        C914   1.401       .  A
C909        F916   1.358       .  S
C910        C911   1.407       .  A
C911        C912   1.400       .  A
C911        F918   1.358       .  S
C912        C913   1.411       .  A
C912        F917   1.358       .  S
C913       C1348   1.487       .  S
C913        C914   1.406       .  A
C914       F2103   1.358       .  S
F915       C2102   1.358   1_554  S
C919        C920   1.406       .  A
C919        C924   1.400   1_545  A
C919        F926   1.358   1_545  S
C920        C921   1.411       .  A
C921        C922   1.402       .  A
C921        F928   1.358       .  S
C922        C923   1.408   1_545  A
C922        F927   1.358       .  S
C923        C924   1.412       .  A
C924        F925   1.358       .  S
C929        C930   1.406       .  A
C929        C934   1.402       .  A
C929        F936   1.358       .  S
C930        C931   1.411       .  A
C931        C932   1.400       .  A
C931        F938   1.358       .  S
C932        C933   1.403       .  A
C932        F937   1.358       .  S
C933        C934   1.409       .  A
C934        F935   1.358       .  S
C939        C940   1.411       .  A
C939        C944   1.394       .  A
C939        F946   1.358       .  S
C940        C941   1.405       .  A
C941        C942   1.400       .  A
C941        F948   1.358       .  S
C942        C943   1.411       .  A
C942        F947   1.358       .  S
C943        C944   1.403       .  A
C944        F945   1.358       .  S
C949        C950   1.404       .  A
C949        C954   1.401       .  A
C949        F956   1.358       .  S
C950        C951   1.408       .  A
C951        C952   1.395       .  A
C951        F958   1.358       .  S
C952        C953   1.406       .  A
C952        F957   1.358       .  S
C953        C954   1.412       .  A
C954        F955   1.358       .  S
C959        C960   1.408       .  A
C959        C964   1.398       .  A
C959        F966   1.358       .  S
C960        C961   1.408       .  A
C961        C962   1.405       .  A
C961        F968   1.358       .  S
C962        C963   1.409       .  A
C962        F967   1.357       .  S
C963        C964   1.408       .  A
C964        F965   1.358       .  S
C969        C970   1.413       .  A
C969        C974   1.401       .  A
C969        F976   1.358       .  S
C970        C971   1.406       .  A
C971        C972   1.394       .  A
C971        F978   1.358       .  S
C972        C973   1.409       .  A
C972        F977   1.358       .  S
C973        C974   1.404       .  A
C974        F975   1.358       .  S
C979        C980   1.412       .  A
C979        C984   1.393       .  A
C979        F986   1.358       .  S
C980        C981   1.406       .  A
C981        C982   1.404       .  A
C981        F988   1.358       .  S
C982        C983   1.414       .  A
C982        F987   1.358       .  S
C983        C984   1.404       .  A
C984        F985   1.358       .  S
C989        C990   1.409       .  A
C989        C994   1.400       .  A
C989        F996   1.358       .  S
C990        C991   1.404       .  A
C991        C992   1.402   1_565  A
C991        F998   1.358       .  S
C992        C993   1.413       .  A
C992        F997   1.358       .  S
C993        C994   1.408   1_545  A
C994        F995   1.358       .  S
C999       C1000   1.407       .  A
C999       C1004   1.403       .  A
C999       F1006   1.358       .  S
C1000      C1001   1.406       .  A
C1001      C1002   1.397       .  A
C1001      F1008   1.358       .  S
C1002      C1003   1.408       .  A
C1002      F1007   1.358       .  S
C1003      C1004   1.408       .  A
C1004      F1005   1.357       .  S
C1009      C1010   1.409       .  A
C1009      C1014   1.397   1_655  A
C1009      F1016   1.358       .  S
C1010      C1011   1.408       .  A
C1011      C1012   1.404   1_655  A
C1011      F1018   1.358       .  S
C1012      C1013   1.408       .  A
C1012      F1017   1.358       .  S
C1013      C1014   1.406       .  A
C1014      F1015   1.358       .  S
C1019      C2208   1.407   1_554  A
C1019      C2212   1.401   1_554  A
C1019      F1026   1.358       .  S
C1020      C1268   1.487       .  S
C1020      C1021   1.411       .  A
C1020      C2207   1.407       .  A
C1021      C1022   1.399       .  A
C1021      F1028   1.358       .  S
C1022      C1023   1.406       .  A
C1022      F1027   1.358       .  S
C1023      C1024   1.412       .  A
C1024      C2207   1.401       .  A
C1024      F1025   1.358       .  S
C1029      C1030   1.405       .  A
C1029      C1034   1.402       .  A
C1029      F1036   1.358       .  S
C1030      C1031   1.410       .  A
C1031      C1032   1.397       .  A
C1031      F1038   1.358       .  S
C1032      C1033   1.407       .  A
C1032      F1037   1.358       .  S
C1033      C1034   1.413       .  A
C1034      F1035   1.358       .  S
C1039      C1040   1.413       .  A
C1039      C1044   1.403       .  A
C1039      F1046   1.358       .  S
C1040      C1041   1.402       .  A
C1041      C1042   1.393       .  A
C1041      F1048   1.358       .  S
C1042      C1043   1.413       .  A
C1042      F1047   1.358       .  S
C1043      C1271   1.485       .  S
C1043      C1044   1.407       .  A
C1044      F1045   1.358       .  S
C1049      C1050   1.403       .  A
C1049      C1054   1.394       .  A
C1049      F1056   1.358       .  S
C1050      C1051   1.407       .  A
C1051      C1052   1.404       .  A
C1051      F1058   1.358       .  S
C1052      C1053   1.410       .  A
C1052      F1057   1.358       .  S
C1053      C1054   1.409       .  A
C1054      F2243   1.358       .  S
F1055      C2242   1.358       .  S
C1059      C1060   1.412       .  A
C1059      C1064   1.398       .  A
C1059      F1066   1.358       .  S
C1060      C1061   1.405       .  A
C1061      C1062   1.396       .  A
C1061      F1068   1.358       .  S
C1062      C1063   1.413       .  A
C1062      F1067   1.358       .  S
C1063      C1064   1.405       .  A
C1064      F1065   1.358       .  S
C1069      C1070   1.413       .  A
C1069      C2262   1.397       .  A
C1069      F1076   1.358       .  S
C1070      C1071   1.404       .  A
C1071      C1072   1.398       .  A
C1071      F1078   1.358       .  S
C1072      C1073   1.412       .  A
C1072      F1077   1.358       .  S
C1073      C1244   1.483       .  S
C1073      C2262   1.406       .  A
C1074      C2257   1.397       .  A
C1074      C2261   1.406   1_556  A
C1074      F1075   1.358       .  S
C1079      C1080   1.406       .  A
C1079      C1084   1.398       .  A
C1079      F1086   1.358       .  S
C1080      C1081   1.412       .  A
C1081      C1082   1.402       .  A
C1081      F1088   1.358       .  S
C1082      C1083   1.408       .  A
C1082      F1087   1.358       .  S
C1083      C1084   1.411       .  A
C1084      F1085   1.358       .  S
C1089      C1090   1.407       .  A
C1089      C1094   1.403       .  A
C1089      F1096   1.358       .  S
C1090      C1091   1.404       .  A
C1091      C1092   1.395       .  A
C1091      F1098   1.358       .  S
C1092      C1093   1.407       .  A
C1092      F1097   1.358       .  S
C1093      C1094   1.408       .  A
C1094      F1095   1.358       .  S
C1099      C1100   1.406       .  A
C1099      C1104   1.398       .  A
C1099      F1106   1.358       .  S
C1100      C1101   1.407       .  A
C1101      C1102   1.404       .  A
C1101      F1108   1.358       .  S
C1102      C1103   1.409       .  A
C1102      F1107   1.357       .  S
C1103      C1104   1.409       .  A
C1104      F1105   1.358       .  S
C1109      C1110   1.411       .  A
C1109      C1114   1.401       .  A
C1109      F1116   1.358       .  S
C1110      C1111   1.406       .  A
C1111      C1112   1.401       .  A
C1111      F1118   1.358       .  S
C1112      C1113   1.412       .  A
C1112      F1117   1.358       .  S
C1113      C1114   1.408       .  A
C1114      F1115   1.358       .  S
C1119      C1120   1.407       .  A
C1119      C1124   1.396       .  A
C1119      F1126   1.358       .  S
C1120      C1121   1.409       .  A
C1121      C1122   1.402       .  A
C1121      F1128   1.358       .  S
C1122      C1123   1.405       .  A
C1122      F1127   1.358       .  S
C1123      C1124   1.406       .  A
C1124      F1125   1.358       .  S
C1129      C1130   1.410       .  A
C1129      C1134   1.391       .  A
C1129      F1136   1.358       .  S
C1130      C1131   1.405       .  A
C1131      C2320   1.403       .  A
C1131      F1138   1.358       .  S
C1132      C2319   1.403       .  A
C1132      C2321   1.414       .  A
C1132      F1137   1.358       .  S
C1133      C1229   1.483   1_554  S
C1133      C1134   1.404       .  A
C1133      C2320   1.414       .  A
C1134      F1135   1.358       .  S
C1139      C1140   1.412       .  A
C1139      C1144   1.401       .  A
C1139      F1146   1.358       .  S
C1140      C1141   1.404       .  A
C1141      C1142   1.395       .  A
C1141      F1148   1.358       .  S
C1142      C1143   1.412       .  A
C1142      F1147   1.358       .  S
C1143      C1144   1.406       .  A
C1144      F1145   1.358       .  S
C1149      C1150   1.410       .  A
C1149      C1154   1.405   1_565  A
C1149      F1156   1.358       .  S
C1150      C1151   1.409       .  A
C1151      C1152   1.400   1_565  A
C1151      F1158   1.358       .  S
C1152      C1153   1.406       .  A
C1152      F1157   1.358       .  S
C1153      C1154   1.407       .  A
C1154      F1155   1.358       .  S
C1159      C1160   1.406       .  A
C1159      C1164   1.399       .  A
C1159      F1166   1.358       .  S
C1160      C1197   1.484   1_554  S
C1160      C1161   1.413       .  A
C1161      C1162   1.397       .  A
C1161      F2356   1.358   1_554  S
C1162      C1163   1.402       .  A
C1162      F1167   1.358       .  S
C1163      C1164   1.410       .  A
C1164      F1165   1.358       .  S
F1168      C2349   1.358       .  S
C1169      C1170   1.413       .  A
C1169      C1174   1.397       .  A
C1169      F1176   1.358       .  S
C1170      C1171   1.406       .  A
C1171      C1172   1.400       .  A
C1171      F1178   1.358       .  S
C1172      C1173   1.412       .  A
C1172      F1177   1.358       .  S
C1173      C1174   1.404       .  A
C1174      F1175   1.358       .  S
C1179      C1180   1.410       .  A
C1179      C1184   1.401       .  A
C1179      F1186   1.358       .  S
C1180      C1190   1.492   1_554  S
C1180      C1181   1.408       .  A
C1181      C1182   1.405       .  A
C1181      F2376   1.358   1_554  S
C1182      C1183   1.413       .  A
C1182      F1187   1.358       .  S
C1183      C1184   1.408       .  A
C1184      F1185   1.358       .  S
F1188      C2369   1.358       .  S
O1189      C1192   1.272       .  A
O1189     Cd1194   2.465       .  S
C1190      O1199   1.267   1_556  A
C1190      O1195   1.271       .  A
O1191      C1197   1.275       .  A
O1191     Cd1194   2.491       .  S
C1192      O1200   1.265       .  A
C1192      C2361   1.483       .  S
C1193      O1198   1.271       .  A
C1193      O1196   1.266       .  A
C1193      C2338   1.488       .  S
Cd1194     O1201   2.395       .  S
Cd1194     O1200   2.421       .  S
Cd1194     O1199   2.456   1_556  S
Cd1194     O1195   2.503       .  S
Cd1194     O1198   2.503       .  S
Cd1194     O1196   2.445       .  S
C1197      O1201   1.263       .  A
O1202      C1205   1.271       .  A
O1202     Cd1207   2.461       .  S
C1203      O1212   1.268       .  A
C1203      O1208   1.271       .  A
C1203      C2371   1.494       .  S
O1204      C1210   1.276       .  A
O1204     Cd1207   2.509       .  S
C1205      O1213   1.266       .  A
C1205      C2328   1.483       .  S
C1206      O1211   1.272       .  A
C1206      O1209   1.265       .  A
C1206      C2311   1.477       .  S
Cd1207     O1214   2.357       .  S
Cd1207     O1213   2.442       .  S
Cd1207     O1212   2.467       .  S
Cd1207     O1208   2.467       .  S
Cd1207     O1211   2.493       .  S
Cd1207     O1209   2.409       .  S
C1210      O1214   1.263       .  A
C1210      C2318   1.480       .  S
O1215      C1218   1.274       .  A
O1215     Cd1220   2.468       .  S
C1216      O1225   1.265       .  A
C1216      O1221   1.274       .  A
C1216      C2351   1.479       .  S
O1217      C1223   1.276       .  A
O1217     Cd1220   2.485       .  S
C1218      O1226   1.268       .  A
C1218      C2298   1.487       .  S
C1219      O1224   1.273       .  A
C1219      O1222   1.266       .  A
C1219      C2288   1.481       .  S
Cd1220     O1227   2.394       .  S
Cd1220     O1226   2.428       .  S
Cd1220     O1225   2.417       .  S
Cd1220     O1221   2.467       .  S
Cd1220     O1224   2.485       .  S
Cd1220     O1222   2.426       .  S
C1223      O1227   1.265       .  A
C1223      C2358   1.486       .  S
O1228      C1231   1.272       .  A
O1228     Cd1233   2.478       .  S
C1229      O1238   1.265       .  A
C1229      O1234   1.272       .  A
O1230      C1236   1.275       .  A
O1230     Cd1233   2.490       .  S
C1231      O1239   1.267       .  A
C1231      C2301   1.491       .  S
C1232      O1237   1.271       .  A
C1232      O1235   1.266       .  A
C1232      C2278   1.476       .  S
Cd1233     O1240   2.373       .  S
Cd1233     O1239   2.448       .  S
Cd1233     O1238   2.428       .  S
Cd1233     O1234   2.448       .  S
Cd1233     O1237   2.478       .  S
Cd1233     O1235   2.419       .  S
C1236      O1240   1.263       .  A
C1236      C2331   1.483       .  S
O1241      C1244   1.272       .  A
O1241     Cd1246   2.469       .  S
C1242      O1251   1.267       .  A
C1242      O1247   1.273       .  A
C1242      C2268   1.487       .  S
O1243      C1249   1.275       .  A
O1243     Cd1246   2.480       .  S
C1244      O1252   1.265       .  A
C1245      O1250   1.271       .  A
C1245      O1248   1.266       .  A
C1245      C2238   1.476       .  S
Cd1246     O1253   2.384       .  S
Cd1246     O1252   2.412       .  S
Cd1246     O1251   2.439       .  S
Cd1246     O1247   2.456       .  S
Cd1246     O1250   2.489       .  S
Cd1246     O1248   2.415       .  S
C1249      O1253   1.263       .  A
C1249      C2251   1.483       .  S
O1254      C1257   1.272       .  A
O1254     Cd1259   2.458       .  S
C1255      O1264   1.268       .  A
C1255      O1260   1.273       .  A
C1255      C2271   1.488       .  S
O1256      C1262   1.275       .  A
O1256     Cd1259   2.500       .  S
C1257      O1265   1.265       .  A
C1257      C2228   1.483       .  S
C1258      O1263   1.272       .  A
C1258      O1261   1.267       .  A
C1258      C2341   1.484       .  S
Cd1259     O1266   2.400       .  S
Cd1259     O1265   2.435       .  S
Cd1259     O1264   2.430       .  S
Cd1259     O1260   2.482       .  S
Cd1259     O1263   2.495       .  S
Cd1259     O1261   2.447       .  S
C1262      O1266   1.264       .  A
C1262      C2218   1.483       .  S
O1267      C1270   1.271       .  A
O1267     Cd1272   2.463       .  S
C1268      O1277   1.267       .  A
C1268      O1273   1.271       .  A
O1269      C1275   1.272       .  A
O1269     Cd1272   2.495       .  S
C1270      O1278   1.266       .  A
C1270      C2221   1.487       .  S
C1271      O1276   1.275       .  A
C1271      O1274   1.262       .  A
Cd1272     O1279   2.423       .  S
Cd1272     O1278   2.448       .  S
Cd1272     O1277   2.443       .  S
Cd1272     O1273   2.473       .  S
Cd1272     O1276   2.512       .  S
Cd1272     O1274   2.361       .  S
C1275      O1279   1.265       .  A
C1275      C2198   1.484       .  S
O1280      C1283   1.272       .  A
O1280     Cd1285   2.453       .  S
C1281      O1290   1.265       .  A
C1281      O1286   1.272       .  A
C1281      C2248   1.482       .  S
O1282      C1288   1.275       .  A
O1282     Cd1285   2.475       .  S
C1283      O1291   1.268       .  A
C1283      C2211   1.487       .  S
C1284      O1289   1.272       .  A
C1284      O1287   1.266       .  A
C1284      C2188   1.479       .  S
Cd1285     O1292   2.390       .  S
Cd1285     O1291   2.440       .  S
Cd1285     O1290   2.419       .  S
Cd1285     O1286   2.464       .  S
Cd1285     O1289   2.480       .  S
Cd1285     O1287   2.419       .  S
C1288      O1292   1.264       .  A
C1288      C2258   1.482       .  S
O1293      C1296   1.272       .  A
C1294      O1303   1.268       .  A
C1294      O1299   1.273       .  A
C1294      C2178   1.484       .  S
O1295     Cd1298   2.496       .  S
C1296      O1304   1.267       .  A
C1296      C2158   1.485       .  S
C1297      O1302   1.277       .  A
C1297      O1300   1.264       .  A
C1297      C2168   1.486       .  S
Cd1298     O1303   2.436       .  S
Cd1298     O1299   2.476       .  S
Cd1298     O1302   2.512       .  S
Cd1298     O1300   2.363       .  S
C1301      O1305   1.266       .  A
C1301      C2148   1.484       .  S
O1306      C1309   1.271       .  A
O1306     Cd1311   2.481       .  S
C1307      O1316   1.266       .  A
C1307      O1312   1.273       .  A
C1307      C2131   1.479       .  S
O1308      C1314   1.274       .  A
O1308     Cd1311   2.484       .  S
C1309      O1317   1.266       .  A
C1309      C2181   1.491       .  S
C1310      O1315   1.272       .  A
C1310      O1313   1.265       .  A
C1310      C2121   1.479       .  S
Cd1311     O1318   2.397       .  S
Cd1311     O1317   2.446       .  S
Cd1311     O1316   2.423       .  S
Cd1311     O1312   2.455       .  S
Cd1311     O1315   2.488       .  S
Cd1311     O1313   2.432       .  S
C1314      O1318   1.264       .  A
C1314      C2138   1.477       .  S
O1319      C1322   1.272       .  A
O1319     Cd1324   2.458       .  S
C1320      O1329   1.267       .  A
C1320      O1325   1.272       .  A
C1320      C2111   1.490       .  S
O1321      C1327   1.273       .  A
O1321     Cd1324   2.487       .  S
C1322      O1330   1.265       .  A
C1322      C2171   1.485       .  S
C1323      O1328   1.270       .  A
C1323      O1326   1.267       .  A
C1323      C2308   1.481       .  S
Cd1324     O1331   2.385       .  S
Cd1324     O1330   2.437       .  S
Cd1324     O1329   2.439       .  S
Cd1324     O1325   2.483       .  S
Cd1324     O1328   2.465       .  S
Cd1324     O1326   2.433       .  S
C1327      O1331   1.263       .  A
C1327      C2161   1.479       .  S
O1332      C1335   1.271       .  A
C1333      O1342   1.267       .  A
C1333      O1338   1.271       .  A
C1333      C2108   1.487       .  S
O1334      C1340   1.275       .  A
O1334     Cd1337   2.492       .  S
C1335      O1343   1.267       .  A
C1335      C2141   1.481       .  S
C1336      O1339   1.265       .  A
C1336      C2241   1.484       .  S
Cd1337     O1344   2.367       .  S
Cd1337     O1342   2.455       .  S
Cd1337     O1338   2.463       .  S
Cd1337     O1341   2.494       .  S
C1340      O1344   1.263       .  A
C1340      C2128   1.479       .  S
O1345      C1348   1.273       .  A
O1345     Cd1350   2.480       .  S
C1346      O1355   1.266       .  A
C1346      O1351   1.272       .  A
C1346      C2091   1.483       .  S
O1347      C1353   1.275       .  A
O1347     Cd1350   2.487       .  S
C1348      O1356   1.267       .  A
C1349      O1354   1.272       .  A
C1349      O1352   1.267       .  A
C1349      C2291   1.485       .  S
Cd1350     O1357   2.390       .  S
Cd1350     O1356   2.430       .  S
Cd1350     O1355   2.424       .  S
Cd1350     O1351   2.461       .  S
Cd1350     O1354   2.494       .  S
Cd1350     O1352   2.427       .  S
C1353      O1357   1.264       .  A
O1358      C1361   1.272       .  A
O1358     Cd1363   2.476       .  S
C1359      O1368   1.266       .  A
C1359      O1364   1.273       .  A
C1359      C2058   1.483       .  S
O1360      C1366   1.274       .  A
O1360     Cd1363   2.476       .  S
C1361      O1369   1.266       .  A
C1361      C2098   1.489       .  S
C1362      O1367   1.272       .  A
C1362      O1365   1.266       .  A
C1362      C2048   1.478       .  S
Cd1363     O1370   2.396       .  S
Cd1363     O1369   2.436       .  S
Cd1363     O1368   2.417       .  S
Cd1363     O1364   2.464       .  S
Cd1363     O1367   2.475       .  S
Cd1363     O1365   2.414       .  S
C1366      O1370   1.265       .  A
C1366      C2068   1.482       .  S
O1371      C1374   1.272       .  A
O1371     Cd1376   2.463       .  S
C1372      O1381   1.265       .  A
C1372      O1377   1.271       .  A
C1372      C2038   1.486       .  S
O1373      C1379   1.274       .  A
O1373     Cd1376   2.485       .  S
C1374      O1382   1.266       .  A
C1374      C2078   1.483       .  S
C1375      O1380   1.271       .  A
C1375      O1378   1.266       .  A
C1375      C2028   1.479       .  S
Cd1376     O1383   2.390       .  S
Cd1376     O1382   2.419       .  S
Cd1376     O1381   2.429       .  S
Cd1376     O1377   2.472       .  S
Cd1376     O1380   2.488       .  S
Cd1376     O1378   2.423       .  S
C1379      O1383   1.264       .  A
C1379      C2088   1.484       .  S
O1384      C1387   1.271       .  A
O1384     Cd1389   2.463       .  S
C1385      O1394   1.267       .  A
C1385      O1390   1.272       .  A
C1385      C2041   1.482       .  S
O1386      C1392   1.276       .  A
O1386     Cd1389   2.507       .  S
C1387      O1395   1.266       .  A
C1387      C2071   1.484       .  S
C1388      O1393   1.272       .  A
C1388      O1391   1.266       .  A
C1388      C2018   1.486       .  S
Cd1389     O1396   2.390       .  S
Cd1389     O1395   2.421       .  S
Cd1389     O1394   2.430       .  S
Cd1389     O1390   2.459       .  S
Cd1389     O1393   2.492       .  S
Cd1389     O1391   2.435       .  S
C1392      O1396   1.263       .  A
C1392      C2061   1.488       .  S
O1397      C1400   1.271       .  A
O1397     Cd1402   2.459       .  S
C1398      O1407   1.268       .  A
C1398      O1403   1.271       .  A
C1398      C2011   1.489       .  S
O1399      C1405   1.276       .  A
O1399     Cd1402   2.509       .  S
C1400      O1408   1.265       .  A
C1400      C1998   1.481       .  S
C1401      O1406   1.272       .  A
C1401      O1404   1.266       .  A
C1401      C1978   1.489       .  S
Cd1402     O1409   2.375       .  S
Cd1402     O1408   2.424       .  S
Cd1402     O1407   2.450       .  S
Cd1402     O1403   2.468       .  S
Cd1402     O1406   2.509       .  S
Cd1402     O1404   2.439       .  S
C1405      O1409   1.263       .  A
C1405      C1988   1.483       .  S
O1410      C1413   1.271       .  A
C1411      O1420   1.268       .  A
C1411      O1416   1.271       .  A
C1411      C2008   1.485       .  S
O1412      C1418   1.275       .  A
O1412     Cd1415   2.504       .  S
C1413      O1421   1.265       .  A
C1413      C1971   1.479       .  S
C1414      O1417   1.266       .  A
C1414      C1948   1.486       .  S
Cd1415     O1422   2.378       .  S
Cd1415     O1420   2.436       .  S
Cd1415     O1416   2.462       .  S
Cd1415     O1419   2.501       .  S
C1418      O1422   1.263       .  A
C1418      C1961   1.483       .  S
O1423      C1426   1.271       .  A
O1423     Cd1428   2.474       .  S
C1424      O1433   1.265       .  A
C1424      O1429   1.272       .  A
C1424      C1991   1.484       .  S
O1425      C1431   1.274       .  A
O1425     Cd1428   2.480       .  S
C1426      O1434   1.267       .  A
C1426      C1941   1.487       .  S
C1427      O1430   1.265   1_554  A
C1427      C2281   1.479   1_554  S
Cd1428     O1435   2.380       .  S
Cd1428     O1434   2.440       .  S
Cd1428     O1432   2.484       .  S
C1431      O1435   1.264       .  A
C1431      C2001   1.482       .  S
O1436      C1439   1.271       .  A
O1436     Cd1441   2.465       .  S
C1437      O1446   1.267       .  A
C1437      O1442   1.271       .  A
C1437      C1958   1.485       .  S
O1438      C1444   1.275       .  A
O1438     Cd1441   2.483       .  S
C1439      O1447   1.266       .  A
C1439      C1938   1.487       .  S
C1440      O1445   1.271       .  A
C1440      O1443   1.264       .  A
C1440      C2051   1.468       .  S
Cd1441     O1448   2.366       .  S
Cd1441     O1447   2.444       .  S
Cd1441     O1446   2.442       .  S
Cd1441     O1442   2.440       .  S
Cd1441     O1445   2.475       .  S
Cd1441     O1443   2.402       .  S
C1444      O1448   1.263       .  A
C1444      C1968   1.480       .  S
O1449      C1452   1.272       .  A
O1449     Cd1454   2.462       .  S
C1450      O1459   1.266       .  A
C1450      O1455   1.270       .  A
C1450      C1928   1.489       .  S
O1451      C1457   1.274       .  A
O1451     Cd1454   2.493       .  S
C1452      O1460   1.266       .  A
C1452      C1918   1.484       .  S
C1453      O1458   1.271       .  A
C1453      O1456   1.265       .  A
C1453      C1898   1.479       .  S
Cd1454     O1461   2.390       .  S
Cd1454     O1460   2.418       .  S
Cd1454     O1459   2.453       .  S
Cd1454     O1455   2.475       .  S
Cd1454     O1458   2.496       .  S
Cd1454     O1456   2.420       .  S
C1457      O1461   1.263       .  A
C1457      C1911   1.484       .  S
O1462      C1465   1.272       .  A
O1462     Cd1467   2.446       .  S
C1463      O1472   1.265   1_556  A
C1463      O1468   1.271       .  A
O1464      C1470   1.275   1_556  A
O1464     Cd1467   2.501       .  S
C1465      O1473   1.267       .  A
C1465      C1888   1.484       .  S
C1466      O1471   1.272       .  A
C1466      O1469   1.265       .  A
C1466      C2031   1.478       .  S
Cd1467     O1474   2.373       .  S
Cd1467     O1473   2.436       .  S
Cd1467     O1472   2.441   1_556  S
Cd1467     O1468   2.481       .  S
Cd1467     O1471   2.486       .  S
Cd1467     O1469   2.436       .  S
C1470      O1474   1.263   1_554  A
O1475      C1478   1.272       .  A
O1475     Cd1480   2.473       .  S
C1476      O1485   1.266       .  A
C1476      O1481   1.272       .  A
O1477      C1483   1.275       .  A
O1477     Cd1480   2.490       .  S
C1478      O1486   1.267       .  A
C1478      C1868   1.489       .  S
C1479      O1484   1.272       .  A
C1479      O1482   1.266       .  A
C1479      C2151   1.486       .  S
Cd1480     O1487   2.395       .  S
Cd1480     O1486   2.445       .  S
Cd1480     O1485   2.434       .  S
Cd1480     O1481   2.468       .  S
Cd1480     O1484   2.495       .  S
Cd1480     O1482   2.435       .  S
C1483      O1487   1.264       .  A
C1483      C1921   1.485       .  S
O1488      C1491   1.270       .  A
O1488     Cd1493   2.481       .  S
C1489      O1498   1.267       .  A
C1489      O1494   1.272       .  A
C1489      C1881   1.481       .  S
O1490      C1496   1.275       .  A
O1490     Cd1493   2.504       .  S
C1491      O1499   1.266       .  A
C1491      C1871   1.489       .  S
C1492      O1497   1.272       .  A
C1492      O1495   1.265       .  A
C1492      C1858   1.481       .  S
Cd1493     O1500   2.380       .  S
Cd1493     O1499   2.446       .  S
Cd1493     O1498   2.437       .  S
Cd1493     O1494   2.450       .  S
Cd1493     O1497   2.494       .  S
Cd1493     O1495   2.431       .  S
C1496      O1500   1.263       .  A
C1496      C1891   1.486       .  S
O1501      C1504   1.273       .  A
O1501     Cd1506   2.469       .  S
C1502      O1511   1.265       .  A
C1502      O1507   1.273       .  A
O1503      C1509   1.276       .  A
O1503     Cd1506   2.476       .  S
C1504      O1512   1.268       .  A
C1504      C1848   1.490       .  S
C1505      O1510   1.271       .  A
C1505      O1508   1.266       .  A
C1505      C1818   1.478       .  S
Cd1506     O1513   2.385       .  S
Cd1506     O1512   2.447       .  S
Cd1506     O1511   2.433       .  S
Cd1506     O1507   2.462       .  S
Cd1506     O1510   2.490       .  S
Cd1506     O1508   2.426       .  S
C1509      O1513   1.264       .  A
C1509      C1838   1.481       .  S
O1514      C1517   1.272       .  A
O1514     Cd1519   2.485       .  S
C1515      O1524   1.265       .  A
C1515      O1520   1.271       .  A
C1515      C1798   1.482       .  S
O1516      C1522   1.275       .  A
O1516     Cd1519   2.489       .  S
C1517      O1525   1.267       .  A
C1517      C1851   1.492       .  S
C1518      O1523   1.271       .  A
C1518      O1521   1.266       .  A
C1518      C2201   1.482       .  S
Cd1519     O1526   2.375       .  S
Cd1519     O1525   2.445       .  S
Cd1519     O1524   2.434       .  S
Cd1519     O1520   2.455       .  S
Cd1519     O1523   2.489       .  S
Cd1519     O1521   2.426       .  S
C1522      O1526   1.264       .  A
C1522      C1808   1.480       .  S
O1527      C1530   1.272       .  A
O1527     Cd1532   2.455       .  S
C1528      O1537   1.268       .  A
C1528      O1533   1.272       .  A
C1528      C1791   1.487       .  S
O1529      C1535   1.276       .  A
O1529     Cd1532   2.502       .  S
C1530      O1538   1.265       .  A
C1530      C1841   1.481       .  S
C1531      O1536   1.272       .  A
C1531      O1534   1.266       .  A
C1531      C1981   1.483       .  S
Cd1532     O1539   2.384       .  S
Cd1532     O1538   2.413       .  S
Cd1532     O1537   2.443       .  S
Cd1532     O1533   2.467       .  S
Cd1532     O1536   2.499       .  S
Cd1532     O1534   2.427       .  S
C1535      O1539   1.264       .  A
C1535      C1828   1.485       .  S
O1540      C1543   1.272       .  A
O1540     Cd1545   2.445       .  S
C1541      O1550   1.268   1_556  A
C1541      O1546   1.271       .  A
O1542      C1548   1.275       .  A
O1542     Cd1545   2.491       .  S
C1543      O1551   1.265       .  A
C1543      C1811   1.480       .  S
C1544      O1549   1.271       .  A
C1544      O1547   1.267       .  A
C1544      C1781   1.477       .  S
Cd1545     O1552   2.367       .  S
Cd1545     O1551   2.408       .  S
Cd1545     O1550   2.442   1_556  S
Cd1545     O1546   2.468       .  S
Cd1545     O1549   2.476       .  S
Cd1545     O1547   2.420       .  S
C1548      O1552   1.263       .  A
O1553      C1556   1.270       .  A
O1553     Cd1558   2.449       .  S
C1554      O1563   1.268       .  A
C1554      O1559   1.271       .  A
C1554      C1768   1.483       .  S
O1555      C1561   1.276       .  A
O1555     Cd1558   2.495       .  S
C1556      O1564   1.266       .  A
C1556      C1758   1.481       .  S
C1557      O1562   1.273       .  A
C1557      O1560   1.264       .  A
C1557      C1778   1.479       .  S
Cd1558     O1565   2.371       .  S
Cd1558     O1564   2.434       .  S
Cd1558     O1563   2.444       .  S
Cd1558     O1559   2.439       .  S
Cd1558     O1562   2.494       .  S
Cd1558     O1560   2.401       .  S
C1561      O1565   1.263       .  A
C1561      C1748   1.481       .  S
O1566      C1569   1.270       .  A
O1566     Cd1571   2.456       .  S
C1567      O1576   1.265       .  A
C1567      O1572   1.270       .  A
C1567      C1738   1.482       .  S
O1568      C1574   1.271       .  A
O1568     Cd1571   2.509       .  S
C1569      O1577   1.268       .  A
C1569      C1771   1.482       .  S
C1570      O1575   1.275       .  A
C1570      O1573   1.263       .  A
C1570      C1728   1.486       .  S
Cd1571     O1578   2.419       .  S
Cd1571     O1577   2.442       .  S
Cd1571     O1576   2.427       .  S
Cd1571     O1572   2.466       .  S
Cd1571     O1575   2.516       .  S
Cd1571     O1573   2.380       .  S
C1574      O1578   1.265       .  A
C1574      C1951   1.482       .  S
O1579      C1582   1.269       .  A
O1579     Cd1584   2.463       .  S
C1580      O1589   1.267       .  A
C1580      O1585   1.272       .  A
C1580      C1751   1.480       .  S
O1581      C1587   1.274       .  A
O1581     Cd1584   2.500       .  S
C1582      O1590   1.266       .  A
C1583      O1588   1.272       .  A
C1583      O1586   1.264       .  A
C1583      C1861   1.479       .  S
Cd1584     O1591   2.399       .  S
Cd1584     O1590   2.443       .  S
Cd1584     O1589   2.411       .  S
Cd1584     O1585   2.439       .  S
Cd1584     O1588   2.493       .  S
Cd1584     O1586   2.424       .  S
C1587      O1591   1.263       .  A
O1592      C1595   1.270       .  A
O1592     Cd1597   2.465       .  S
C1593      O1602   1.268       .  A
C1593      O1598   1.272       .  A
C1593      C1731   1.485       .  S
O1594      C1600   1.275       .  A
O1594     Cd1597   2.493       .  S
C1595      O1603   1.266       .  A
C1595      C1718   1.484       .  S
C1596      O1601   1.273       .  A
C1596      O1599   1.265       .  A
C1596      C2118   1.483       .  S
Cd1597     O1604   2.396       .  S
Cd1597     O1603   2.441       .  S
Cd1597     O1602   2.442       .  S
Cd1597     O1598   2.441       .  S
Cd1597     O1601   2.497       .  S
Cd1597     O1599   2.424       .  S
C1600      O1604   1.264       .  A
C1600      C1741   1.486       .  S
O1605      C1608   1.272       .  A
O1605     Cd1610   2.462       .  S
C1606      O1615   1.268       .  A
C1606      O1611   1.271       .  A
C1606      C1711   1.488       .  S
O1607      C1613   1.273       .  A
O1607     Cd1610   2.494       .  S
C1608      O1616   1.266       .  A
C1608      C1688   1.480       .  S
C1609      O1614   1.276       .  A
C1609      O1612   1.263       .  A
C1609      C1701   1.487       .  S
Cd1610     O1617   2.424       .  S
Cd1610     O1616   2.423       .  S
Cd1610     O1615   2.455       .  S
Cd1610     O1611   2.456       .  S
Cd1610     O1614   2.505       .  S
Cd1610     O1612   2.381       .  S
C1613      O1617   1.265       .  A
C1613      C2191   1.483       .  S
O1618      C1621   1.272       .  A
O1618     Cd1623   2.474       .  S
C1619      O1628   1.265       .  A
C1619      O1624   1.272       .  A
C1619      C1668   1.484       .  S
O1620      C1626   1.275       .  A
O1620     Cd1623   2.495       .  S
C1621      O1629   1.267       .  A
C1621      C1708   1.488       .  S
C1622      O1625   1.266       .  A
C1622      C1821   1.486       .  S
Cd1623     O1630   2.367       .  S
Cd1623     O1629   2.446       .  S
Cd1623     O1627   2.491       .  S
C1626      O1630   1.263       .  A
C1626      C1678   1.481       .  S
O1631      C1634   1.273       .  A
C1632      O1641   1.267       .  A
C1632      O1637   1.273       .  A
C1632      C1658   1.490       .  S
O1633      C1639   1.275       .  A
O1633     Cd1636   2.481       .  S
C1634      O1642   1.265       .  A
C1634      C1698   1.483       .  S
C1635      O1638   1.266       .  A
C1635      C2021   1.484       .  S
Cd1636     O1643   2.391       .  S
Cd1636     O1641   2.438       .  S
Cd1636     O1637   2.477       .  S
Cd1636     O1640   2.494       .  S
C1639      O1643   1.264       .  A
C1639      C1691   1.484       .  S
O1644      C1647   1.272       .  A
O1644     Cd1649   2.432       .  S
C1645      O1654   1.266       .  A
C1645      O1650   1.271       .  A
C1645      C1661   1.487       .  S
O1646      C1652   1.275       .  A
O1646     Cd1649   2.482       .  S
C1647      O1655   1.268       .  A
C1647      C1681   1.482       .  S
C1648      O1653   1.272       .  A
C1648      O1651   1.265       .  A
C1648      C1901   1.475       .  S
Cd1649     O1656   2.381       .  S
Cd1649     O1655   2.428       .  S
Cd1649     O1654   2.437       .  S
Cd1649     O1650   2.478       .  S
Cd1649     O1653   2.478       .  S
Cd1649     O1651   2.422       .  S
C1652      O1656   1.263       .  A
C1652      C1671   1.483       .  S
C1657      C1658   1.413       .  A
C1657      C1662   1.401       .  A
C1657      F1664   1.358       .  S
C1658      C1659   1.407   1_655  A
C1659      C1660   1.400       .  A
C1659      F1666   1.358       .  S
C1660      C1661   1.411       .  A
C1660      F1665   1.358       .  S
C1661      C1662   1.406   1_455  A
C1662      F1663   1.358       .  S
C1667      C1668   1.405       .  A
C1667      C1672   1.395       .  A
C1667      F1674   1.358       .  S
C1668      C1669   1.412       .  A
C1669      C1670   1.400       .  A
C1669      F1676   1.357       .  S
C1670      C1671   1.405       .  A
C1670      F1675   1.358       .  S
C1671      C1672   1.413       .  A
C1672      F1673   1.358       .  S
C1677      C1678   1.406       .  A
C1677      C1682   1.402       .  A
C1677      F1684   1.358       .  S
C1678      C1679   1.411       .  A
C1679      C1680   1.392       .  A
C1679      F1686   1.358       .  S
C1680      C1681   1.405       .  A
C1680      F1685   1.358       .  S
C1681      C1682   1.413       .  A
C1682      F1683   1.358       .  S
C1687      C1688   1.403       .  A
C1687      C1692   1.397       .  A
C1687      F1694   1.358       .  S
C1688      C1689   1.410       .  A
C1689      C1690   1.399       .  A
C1689      F1696   1.358       .  S
C1690      C1691   1.406       .  A
C1690      F1695   1.358       .  S
C1691      C1692   1.414       .  A
C1692      F1693   1.358       .  S
C1697      C1698   1.403       .  A
C1697      C1702   1.396       .  A
C1697      F1704   1.358       .  S
C1698      C1699   1.412       .  A
C1699      C1700   1.402       .  A
C1699      F1706   1.358       .  S
C1700      C1701   1.406       .  A
C1700      F1705   1.358       .  S
C1701      C1702   1.414       .  A
C1702      F1703   1.358       .  S
C1707      C1708   1.411       .  A
C1707      C1712   1.400       .  A
C1707      F1714   1.358       .  S
C1708      C1709   1.407   1_455  A
C1709      C1710   1.402       .  A
C1709      F1716   1.358       .  S
C1710      C1711   1.411       .  A
C1710      F1715   1.358       .  S
C1711      C1712   1.406   1_655  A
C1712      F1713   1.358       .  S
C1717      C1718   1.411       .  A
C1717      C1722   1.399   1_556  A
C1717      F1724   1.358       .  S
C1718      C1719   1.406       .  A
C1719      C1720   1.399       .  A
C1719      F1726   1.358       .  S
C1720      C1721   1.410       .  A
C1720      F1725   1.358       .  S
C1721      C1722   1.406   1_556  A
C1727      C1728   1.407       .  A
C1727      C1732   1.403       .  A
C1727      F1734   1.357       .  S
C1728      C1729   1.412       .  A
C1729      C1730   1.394       .  A
C1729      F1736   1.358       .  S
C1730      C1731   1.405       .  A
C1730      F1735   1.358       .  S
C1731      C1732   1.413       .  A
C1732      F1733   1.358       .  S
C1737      C1742   1.399   1_554  A
C1737      F1744   1.358       .  S
C1738      C1739   1.404       .  A
C1739      F1746   1.358       .  S
C1740      C1741   1.414       .  A
C1740      F1745   1.358       .  S
C1741      C1742   1.406       .  A
C1742      F1743   1.357       .  S
C1747      C1748   1.412       .  A
C1747      C1752   1.394       .  A
C1747      F1754   1.358       .  S
C1748      C1749   1.404       .  A
C1749      C1750   1.399       .  A
C1749      F1756   1.357       .  S
C1750      C1751   1.412       .  A
C1750      F1755   1.358       .  S
C1751      C1752   1.405       .  A
C1752      F1753   1.358       .  S
C1757      C1758   1.404       .  A
C1757      C1762   1.396       .  A
C1757      F1764   1.358       .  S
C1758      C1759   1.411       .  A
C1759      C1760   1.400       .  A
C1759      F1766   1.358       .  S
C1760      C1761   1.406       .  A
C1760      F1765   1.357       .  S
C1761      C1762   1.413       .  A
C1767      C1768   1.411       .  A
C1767      C1772   1.400       .  A
C1767      F1774   1.358       .  S
C1768      C1769   1.407       .  A
C1769      C1770   1.397       .  A
C1769      F1776   1.358       .  S
C1770      C1771   1.409       .  A
C1770      F1775   1.358       .  S
C1771      C1772   1.406       .  A
C1772      F1773   1.358       .  S
C1777      C1778   1.407       .  A
C1777      C1782   1.403       .  A
C1777      F1784   1.358       .  S
C1778      C1779   1.408       .  A
C1779      C1780   1.395       .  A
C1779      F1786   1.358       .  S
C1780      C1781   1.405       .  A
C1780      F1785   1.358       .  S
C1781      C1782   1.407       .  A
C1782      F1783   1.358       .  S
C1787      C1788   1.407       .  A
C1787      C1792   1.401       .  A
C1788      C1789   1.411       .  A
C1789      C1790   1.400       .  A
C1789      F1796   1.358       .  S
C1790      C1791   1.407       .  A
C1790      F1795   1.358       .  S
C1791      C1792   1.411       .  A
C1792      F1793   1.358       .  S
C1797      C1798   1.405       .  A
C1797      C1802   1.393       .  A
C1797      F1804   1.358       .  S
C1798      C1799   1.413       .  A
C1799      C1800   1.401       .  A
C1799      F1806   1.358       .  S
C1800      C1801   1.404       .  A
C1800      F1805   1.358       .  S
C1801      C1802   1.410       .  A
C1807      C1808   1.404       .  A
C1807      C1812   1.399       .  A
C1807      F1814   1.358       .  S
C1808      C1809   1.411       .  A
C1809      C1810   1.393       .  A
C1809      F1816   1.358       .  S
C1810      C1811   1.404       .  A
C1810      F1815   1.358       .  S
C1811      C1812   1.413       .  A
C1812      F1813   1.358       .  S
C1817      C1818   1.407       .  A
C1817      C1822   1.404       .  A
C1817      F1824   1.358       .  S
C1818      C1819   1.404       .  A
C1819      C1820   1.396       .  A
C1819      F1826   1.358       .  S
C1820      C1821   1.410       .  A
C1821      C1822   1.410       .  A
C1822      F1823   1.358       .  S
C1827      C1828   1.412       .  A
C1827      C1832   1.395       .  A
C1827      F1834   1.358       .  S
C1828      C1829   1.405       .  A
C1829      F1836   1.358       .  S
C1830      F1835   1.358   1_554  S
C1831      C1832   1.405       .  A
C1832      F1833   1.358       .  S
C1837      C1838   1.413       .  A
C1837      C1842   1.396       .  A
C1837      F1844   1.358       .  S
C1838      C1839   1.404       .  A
C1839      C1840   1.398       .  A
C1839      F1846   1.358       .  S
C1840      C1841   1.412       .  A
C1840      F1845   1.358       .  S
C1841      C1842   1.405       .  A
C1842      F1843   1.358       .  S
C1847      C1848   1.412       .  A
C1847      C1852   1.403       .  A
C1847      F1854   1.358       .  S
C1848      C1849   1.406       .  A
C1849      C1850   1.401       .  A
C1849      F1856   1.358       .  S
C1850      C1851   1.412       .  A
C1850      F1855   1.358       .  S
C1851      C1852   1.408       .  A
C1852      F1853   1.358       .  S
C1857      C1858   1.410       .  A
C1857      C1862   1.400       .  A
C1857      F1864   1.358       .  S
C1858      C1859   1.405       .  A
C1859      C1860   1.401   1_565  A
C1859      F1866   1.358       .  S
C1860      C1861   1.409       .  A
C1860      F1865   1.358       .  S
C1861      C1862   1.403   1_545  A
C1862      F1863   1.358       .  S
C1867      C1868   1.412       .  A
C1867      C1872   1.402       .  A
C1867      F1874   1.358       .  S
C1868      C1869   1.406       .  A
C1869      C1870   1.401       .  A
C1869      F1876   1.358       .  S
C1870      C1871   1.411       .  A
C1870      F1875   1.358       .  S
C1871      C1872   1.408       .  A
C1872      F1873   1.358       .  S
C1877      C1878   1.406       .  A
C1877      C1882   1.402       .  A
C1877      F1884   1.358       .  S
C1878      C1879   1.412       .  A
C1879      C1880   1.394       .  A
C1879      F1886   1.358       .  S
C1880      C1881   1.403       .  A
C1880      F1885   1.358       .  S
C1881      C1882   1.411       .  A
C1882      F1883   1.358       .  S
C1887      C1888   1.412       .  A
C1887      C1892   1.402       .  A
C1887      F1894   1.358       .  S
C1888      C1889   1.405       .  A
C1889      C1890   1.394       .  A
C1889      F1896   1.358       .  S
C1890      C1891   1.412       .  A
C1890      F1895   1.358       .  S
C1891      C1892   1.407       .  A
C1892      F1893   1.358       .  S
C1897      C1898   1.409       .  A
C1897      C1902   1.398       .  A
C1897      F1904   1.358       .  S
C1898      C1899   1.405       .  A
C1899      C1900   1.401       .  A
C1899      F1906   1.358       .  S
C1900      C1901   1.409       .  A
C1900      F1905   1.358       .  S
C1901      C1902   1.402       .  A
C1902      F1903   1.358       .  S
C1907      C1908   1.412       .  A
C1907      C1912   1.400       .  A
C1907      F1914   1.358       .  S
C1908      C1909   1.404       .  A
C1909      C1910   1.396       .  A
C1909      F1916   1.358       .  S
C1910      C1911   1.412       .  A
C1910      F1915   1.358       .  S
C1911      C1912   1.406       .  A
C1912      F1913   1.358       .  S
C1917      C1918   1.412       .  A
C1917      C1922   1.399       .  A
C1917      F1924   1.358       .  S
C1918      C1919   1.405       .  A
C1919      C1920   1.397       .  A
C1919      F1926   1.358       .  S
C1920      C1921   1.413       .  A
C1920      F1925   1.358       .  S
C1921      C1922   1.405       .  A
C1922      F1923   1.357       .  S
C1927      C1928   1.407       .  A
C1927      C1932   1.400       .  A
C1927      F1934   1.358       .  S
C1928      C1929   1.412       .  A
C1929      C1930   1.401       .  A
C1929      F1936   1.358       .  S
C1930      C1931   1.406       .  A
C1931      C1932   1.411       .  A
C1932      F1933   1.358       .  S
C1937      C1938   1.407       .  A
C1937      C1942   1.399       .  A
C1937      F1944   1.358       .  S
C1938      C1939   1.412       .  A
C1939      C1940   1.401       .  A
C1939      F1946   1.358       .  S
C1940      C1941   1.407       .  A
C1940      F1945   1.358       .  S
C1941      C1942   1.411       .  A
C1942      F1943   1.358       .  S
C1947      C1948   1.410       .  A
C1947      C1952   1.406       .  A
C1947      F1954   1.358       .  S
C1948      C1949   1.408       .  A
C1949      C1950   1.396       .  A
C1949      F1956   1.358       .  S
C1950      C1951   1.406       .  A
C1950      F1955   1.358       .  S
C1951      C1952   1.408       .  A
C1952      F1953   1.358       .  S
C1957      C1958   1.413       .  A
C1957      C1962   1.403       .  A
C1957      F1964   1.358       .  S
C1958      C1959   1.405       .  A
C1959      C1960   1.394       .  A
C1959      F1966   1.358       .  S
C1960      C1961   1.411       .  A
C1960      F1965   1.358       .  S
C1961      C1962   1.405       .  A
C1962      F1963   1.358       .  S
C1967      C1968   1.412       .  A
C1967      C1972   1.393       .  A
C1967      F1974   1.358       .  S
C1968      C1969   1.405       .  A
C1969      C1970   1.398       .  A
C1969      F1976   1.358       .  S
C1970      C1971   1.411       .  A
C1970      F1975   1.358       .  S
C1971      C1972   1.404       .  A
C1972      F1973   1.358       .  S
C1977      C1978   1.410       .  A
C1977      C1982   1.398       .  A
C1977      F1984   1.358       .  S
C1978      C1979   1.410       .  A
C1979      C1980   1.406       .  A
C1979      F1986   1.357       .  S
C1980      C1981   1.408       .  A
C1980      F1985   1.358       .  S
C1981      C1982   1.406       .  A
C1982      F1983   1.358       .  S
C1987      C1988   1.405       .  A
C1987      C1992   1.402       .  A
C1987      F1994   1.358       .  S
C1988      C1989   1.412       .  A
C1989      C1990   1.394       .  A
C1989      F1996   1.358       .  S
C1990      C1991   1.405       .  A
C1990      F1995   1.358       .  S
C1991      C1992   1.414       .  A
C1992      F1993   1.358       .  S
C1997      C1998   1.404       .  A
C1997      C2002   1.395       .  A
C1997      F2004   1.358       .  S
C1998      C1999   1.411       .  A
C1999      C2000   1.399       .  A
C1999      F2006   1.358       .  S
C2000      C2001   1.405       .  A
C2000      F2005   1.358       .  S
C2001      C2002   1.412       .  A
C2002      F2003   1.358       .  S
C2007      C2008   1.407       .  A
C2007      C2012   1.401       .  A
C2007      F2014   1.358       .  S
C2008      C2009   1.410       .  A
C2009      C2010   1.399       .  A
C2009      F2016   1.358       .  S
C2010      C2011   1.408       .  A
C2010      F2015   1.358       .  S
C2011      C2012   1.412       .  A
C2012      F2013   1.358       .  S
C2017      C2018   1.409       .  A
C2017      C2022   1.399       .  A
C2017      F2024   1.358       .  S
C2018      C2019   1.409       .  A
C2019      C2020   1.404       .  A
C2019      F2026   1.357       .  S
C2020      C2021   1.407       .  A
C2020      F2025   1.357       .  S
C2021      C2022   1.407       .  A
C2022      F2023   1.358       .  S
C2027      C2028   1.406       .  A
C2027      C2032   1.402   1_655  A
C2027      F2034   1.358       .  S
C2028      C2029   1.409       .  A
C2029      C2030   1.398       .  A
C2029      F2036   1.358       .  S
C2030      C2031   1.403   1_655  A
C2030      F2035   1.358       .  S
C2031      C2032   1.409       .  A
C2032      F2033   1.358       .  S
C2037      C2038   1.412       .  A
C2037      C2042   1.399       .  A
C2037      F2044   1.358       .  S
C2038      C2039   1.407       .  A
C2039      C2040   1.399       .  A
C2039      F2046   1.358       .  S
C2040      C2041   1.410       .  A
C2040      F2045   1.358       .  S
C2041      C2042   1.405       .  A
C2042      F2043   1.358       .  S
C2047      C2048   1.411       .  A
C2047      C2052   1.398       .  A
C2047      F2054   1.358       .  S
C2048      C2049   1.406       .  A
C2049      C2050   1.398       .  A
C2049      F2056   1.358       .  S
C2050      C2051   1.406       .  A
C2050      F2055   1.358       .  S
C2051      C2052   1.401       .  A
C2052      F2053   1.358       .  S
C2057      C2058   1.412       .  A
C2057      C2062   1.401       .  A
C2057      F2064   1.358       .  S
C2058      C2059   1.404       .  A
C2059      C2060   1.397       .  A
C2059      F2066   1.358       .  S
C2060      C2061   1.414       .  A
C2060      F2065   1.358       .  S
C2061      C2062   1.406       .  A
C2062      F2063   1.357       .  S
C2067      C2068   1.411       .  A
C2067      F2074   1.358       .  S
C2068      C2069   1.405       .  A
C2069      C2070   1.399       .  A
C2069      F2076   1.358       .  S
C2070      F2075   1.358   1_556  S
C2071      C2072   1.407       .  A
C2072      F2073   1.358       .  S
C2077      C2078   1.411       .  A
C2077      C2082   1.399       .  A
C2077      F2084   1.358       .  S
C2078      C2079   1.405       .  A
C2079      C2080   1.397       .  A
C2079      F2086   1.358       .  S
C2080      C2081   1.413       .  A
C2080      F2085   1.358   1_556  S
C2081      C2082   1.405       .  A
C2087      C2088   1.406       .  A
C2087      C2092   1.400       .  A
C2087      F2094   1.358       .  S
C2088      C2089   1.412       .  A
C2089      C2090   1.396       .  A
C2089      F2096   1.358       .  S
C2090      C2091   1.405       .  A
C2090      F2095   1.358       .  S
C2091      C2092   1.412       .  A
C2092      F2093   1.358       .  S
C2097      C2098   1.413       .  A
C2097      C2102   1.401       .  A
C2097      F2104   1.358       .  S
C2098      C2099   1.407       .  A
C2099      C2100   1.400       .  A
C2099      F2106   1.358       .  S
C2100      C2101   1.411       .  A
C2100      F2105   1.358       .  S
C2101      C2102   1.406       .  A
C2107      C2108   1.406       .  A
C2107      C2112   1.400   1_545  A
C2107      F2114   1.358   1_545  S
C2108      C2109   1.411       .  A
C2109      C2110   1.402       .  A
C2109      F2116   1.358       .  S
C2110      C2111   1.408   1_545  A
C2110      F2115   1.358       .  S
C2111      C2112   1.412       .  A
C2112      F2113   1.358       .  S
C2117      C2118   1.406       .  A
C2117      C2122   1.402       .  A
C2117      F2124   1.358       .  S
C2118      C2119   1.411       .  A
C2119      C2120   1.400       .  A
C2119      F2126   1.358       .  S
C2120      C2121   1.403       .  A
C2120      F2125   1.358       .  S
C2121      C2122   1.409       .  A
C2122      F2123   1.358       .  S
C2127      C2128   1.411       .  A
C2127      C2132   1.394       .  A
C2127      F2134   1.358       .  S
C2128      C2129   1.405       .  A
C2129      C2130   1.400       .  A
C2129      F2136   1.358       .  S
C2130      C2131   1.411       .  A
C2130      F2135   1.358       .  S
C2131      C2132   1.403       .  A
C2132      F2133   1.358       .  S
C2137      C2138   1.404       .  A
C2137      C2142   1.401       .  A
C2137      F2144   1.358       .  S
C2138      C2139   1.408       .  A
C2139      C2140   1.395       .  A
C2139      F2146   1.358       .  S
C2140      C2141   1.406       .  A
C2140      F2145   1.358       .  S
C2141      C2142   1.412       .  A
C2142      F2143   1.358       .  S
C2147      C2148   1.408       .  A
C2147      C2152   1.398       .  A
C2147      F2154   1.358       .  S
C2148      C2149   1.408       .  A
C2149      C2150   1.405       .  A
C2149      F2156   1.358       .  S
C2150      C2151   1.409       .  A
C2150      F2155   1.357       .  S
C2151      C2152   1.408       .  A
C2152      F2153   1.358       .  S
C2157      C2158   1.413       .  A
C2157      C2162   1.401       .  A
C2157      F2164   1.358       .  S
C2158      C2159   1.406       .  A
C2159      C2160   1.394       .  A
C2159      F2166   1.358       .  S
C2160      C2161   1.410       .  A
C2160      F2165   1.358       .  S
C2161      C2162   1.404       .  A
C2162      F2163   1.358       .  S
C2167      C2168   1.412       .  A
C2167      C2172   1.393       .  A
C2167      F2174   1.358       .  S
C2168      C2169   1.406       .  A
C2169      C2170   1.404       .  A
C2169      F2176   1.358       .  S
C2170      C2171   1.414       .  A
C2170      F2175   1.358       .  S
C2171      C2172   1.404       .  A
C2172      F2173   1.358       .  S
C2177      C2178   1.409       .  A
C2177      C2182   1.400       .  A
C2177      F2184   1.358       .  S
C2178      C2179   1.404       .  A
C2179      C2180   1.402   1_565  A
C2179      F2186   1.358       .  S
C2180      C2181   1.413       .  A
C2180      F2185   1.358       .  S
C2181      C2182   1.408   1_545  A
C2182      F2183   1.358       .  S
C2187      C2188   1.407       .  A
C2187      C2192   1.403       .  A
C2187      F2194   1.358       .  S
C2188      C2189   1.406       .  A
C2189      C2190   1.397       .  A
C2189      F2196   1.358       .  S
C2190      C2191   1.408       .  A
C2190      F2195   1.358       .  S
C2191      C2192   1.408       .  A
C2192      F2193   1.357       .  S
C2197      C2198   1.409       .  A
C2197      C2202   1.397   1_655  A
C2197      F2204   1.358       .  S
C2198      C2199   1.408       .  A
C2199      C2200   1.404   1_655  A
C2199      F2206   1.358       .  S
C2200      C2201   1.408       .  A
C2200      F2205   1.358       .  S
C2201      C2202   1.406       .  A
C2202      F2203   1.358       .  S
C2207      F2214   1.358       .  S
C2208      C2209   1.411       .  A
C2209      C2210   1.399       .  A
C2209      F2216   1.358       .  S
C2210      C2211   1.406       .  A
C2210      F2215   1.358       .  S
C2211      C2212   1.412       .  A
C2212      F2213   1.358       .  S
C2217      C2218   1.405       .  A
C2217      C2222   1.402       .  A
C2217      F2224   1.358       .  S
C2218      C2219   1.410       .  A
C2219      C2220   1.397       .  A
C2219      F2226   1.358       .  S
C2220      C2221   1.407       .  A
C2220      F2225   1.358       .  S
C2221      C2222   1.413       .  A
C2222      F2223   1.358       .  S
C2227      C2228   1.413       .  A
C2227      C2232   1.403       .  A
C2227      F2234   1.358       .  S
C2228      C2229   1.402       .  A
C2229      C2230   1.393       .  A
C2229      F2236   1.358       .  S
C2230      C2231   1.413       .  A
C2230      F2235   1.358   1_556  S
C2231      C2232   1.407       .  A
C2232      F2233   1.358       .  S
C2237      C2238   1.403       .  A
C2237      C2242   1.394       .  A
C2237      F2244   1.358       .  S
C2238      C2239   1.407       .  A
C2239      C2240   1.404       .  A
C2239      F2246   1.358       .  S
C2240      C2241   1.410       .  A
C2240      F2245   1.358       .  S
C2241      C2242   1.409       .  A
C2247      C2248   1.412       .  A
C2247      C2252   1.398       .  A
C2247      F2254   1.358       .  S
C2248      C2249   1.405       .  A
C2249      C2250   1.396       .  A
C2249      F2256   1.358       .  S
C2250      C2251   1.413       .  A
C2250      F2255   1.358       .  S
C2251      C2252   1.405       .  A
C2252      F2253   1.358       .  S
C2257      C2258   1.413       .  A
C2257      F2264   1.358       .  S
C2258      C2259   1.404       .  A
C2259      C2260   1.398   1_556  A
C2259      F2266   1.358       .  S
C2260      C2261   1.412       .  A
C2260      F2265   1.358       .  S
C2262      F2263   1.358       .  S
C2267      C2268   1.406       .  A
C2267      C2272   1.398       .  A
C2267      F2274   1.358       .  S
C2268      C2269   1.412       .  A
C2269      C2270   1.402       .  A
C2269      F2276   1.358       .  S
C2270      C2271   1.408       .  A
C2270      F2275   1.358       .  S
C2271      C2272   1.411       .  A
C2272      F2273   1.358       .  S
C2277      C2278   1.407       .  A
C2277      C2282   1.403       .  A
C2277      F2284   1.358       .  S
C2278      C2279   1.404       .  A
C2279      C2280   1.395       .  A
C2279      F2286   1.358       .  S
C2280      C2281   1.407       .  A
C2280      F2285   1.358       .  S
C2281      C2282   1.408       .  A
C2282      F2283   1.358       .  S
C2287      C2288   1.406       .  A
C2287      C2292   1.398       .  A
C2287      F2294   1.358       .  S
C2288      C2289   1.407       .  A
C2289      C2290   1.404       .  A
C2289      F2296   1.358       .  S
C2290      C2291   1.409       .  A
C2290      F2295   1.357       .  S
C2291      C2292   1.409       .  A
C2292      F2293   1.358       .  S
C2297      C2298   1.411       .  A
C2297      C2302   1.401       .  A
C2297      F2304   1.358       .  S
C2298      C2299   1.406       .  A
C2299      C2300   1.401       .  A
C2299      F2306   1.358       .  S
C2300      C2301   1.412       .  A
C2300      F2305   1.358       .  S
C2301      C2302   1.408       .  A
C2302      F2303   1.358       .  S
C2307      C2308   1.407       .  A
C2307      C2312   1.396       .  A
C2307      F2314   1.358       .  S
C2308      C2309   1.409       .  A
C2309      C2310   1.402       .  A
C2309      F2316   1.358       .  S
C2310      C2311   1.405       .  A
C2310      F2315   1.358       .  S
C2311      C2312   1.406       .  A
C2312      F2313   1.358       .  S
C2317      C2318   1.410       .  A
C2317      C2322   1.391       .  A
C2317      F2324   1.358       .  S
C2318      C2319   1.405       .  A
C2319      F2326   1.358       .  S
C2320      F2325   1.358   1_554  S
C2321      C2322   1.404       .  A
C2322      F2323   1.358       .  S
C2327      C2328   1.412       .  A
C2327      C2332   1.401       .  A
C2327      F2334   1.358       .  S
C2328      C2329   1.404       .  A
C2329      C2330   1.395       .  A
C2329      F2336   1.358       .  S
C2330      C2331   1.412       .  A
C2330      F2335   1.358       .  S
C2331      C2332   1.406       .  A
C2332      F2333   1.358       .  S
C2337      C2338   1.410       .  A
C2337      C2342   1.405   1_565  A
C2337      F2344   1.358       .  S
C2338      C2339   1.409       .  A
C2339      C2340   1.400   1_565  A
C2339      F2346   1.358       .  S
C2340      C2341   1.406       .  A
C2340      F2345   1.358       .  S
C2341      C2342   1.407       .  A
C2342      F2343   1.358       .  S
C2347      C2348   1.406       .  A
C2347      C2352   1.399       .  A
C2347      F2354   1.358       .  S
C2348      C2349   1.413       .  A
C2349      C2350   1.397       .  A
C2350      C2351   1.402       .  A
C2350      F2355   1.358       .  S
C2351      C2352   1.410       .  A
C2352      F2353   1.358       .  S
C2357      C2358   1.413       .  A
C2357      C2362   1.397       .  A
C2357      F2364   1.358       .  S
C2358      C2359   1.406       .  A
C2359      C2360   1.400       .  A
C2359      F2366   1.358       .  S
C2360      C2361   1.412       .  A
C2360      F2365   1.358       .  S
C2361      C2362   1.404       .  A
C2362      F2363   1.358       .  S
C2367      C2368   1.410       .  A
C2367      C2372   1.401       .  A
C2367      F2374   1.358       .  S
C2368      C2369   1.408       .  A
C2369      C2370   1.405       .  A
C2370      C2371   1.413       .  A
C2370      F2375   1.358       .  S
C2371      C2372   1.408       .  A
C2372      F2373   1.358       .  S
