geometry optimzed in LAMMPS
_audit_creation_date              2020-12-01 
_audit_creation_method            'lammps2cif' 
_symmetry_space_group_name_H-M    'P1' 
_symmetry_Int_Tables_number       1 
_symmetry_cell_setting            triclinic 
loop_ 
_symmetry_equiv_pos_as_xyz 
  x,y,z 
_cell_length_a                    31.62890599 
_cell_length_b                    32.70254928429845 
_cell_length_c                    35.19659612092132 
_cell_angle_alpha                 90.02190249287258 
_cell_angle_beta                  90.1054011015922 
_cell_angle_gamma                 120.53013338817424 
loop_ 
_atom_site_label 
_atom_site_type_symbol 
_atom_site_fract_x 
_atom_site_fract_y 
_atom_site_fract_z 
_atom_site_charge 
O1          O  0.50828116  0.60889194  0.15872660    -0.56800
C2          C  0.45097906  0.66232798  0.24374418     0.75800
O3          O  0.35217629  0.53088030  0.20020226    -0.58000
C4          C  0.50405122  0.56845038  0.15415017     0.75800
C5          C  0.45529047  0.53142526  0.27586582     0.78200
Cd6        Cd  0.44310716  0.57799652  0.21027945     1.37500
O7          O  0.48833672  0.66470984  0.22808134    -0.56800
O8          O  0.48353369  0.57477807  0.26784254    -0.55600
C9          C  0.35446020  0.54655956  0.16684973     0.78100
O10         O  0.42010148  0.50772170  0.25296462    -0.58000
O11         O  0.41218728  0.62214668  0.24325099    -0.56500
O12         O  0.47442961  0.53594151  0.17613655    -0.56400
O13         O  0.39702192  0.57428412  0.15408857    -0.55600
O14         O  0.08614046  0.57549447  0.08772326    -0.56800
C15         C  0.19952577  0.64742292  0.00698481     0.75800
O16         O  0.18392721  0.52218917  0.04398326    -0.58000
C17         C  0.05472946  0.53243421  0.09498658     0.75800
C18         C  0.07519619  0.51330338  0.46977866     0.78200
Cd19       Cd  0.12952193  0.55667192  0.03796232     1.37500
O20         O  0.15935001  0.64160072  0.01993351    -0.56800
O21         O  0.09262950  0.55669967  0.47734630    -0.55600
C22         C  0.19784905  0.53790375  0.07744143     0.78100
O23         O  0.08395446  0.48927676  0.49345666    -0.58000
O24         O  0.20712380  0.61408638  0.51174467    -0.56500
O25         O  0.05726995  0.50169889  0.07488507    -0.56400
O26         O  0.17904564  0.56019442  0.09231107    -0.55600
O27         O  0.39923597  0.90979268  0.32282773    -0.56800
C28         C  0.35010621  0.80172000  0.41802135     0.75800
O29         O  0.47974820  0.84039207  0.35274585    -0.58000
C30         C  0.44253023  0.93600396  0.31004173     0.75800
C31         C  0.46520647  0.93948880  0.43542459     0.78200
Cd32       Cd  0.42737233  0.87448204  0.37307406     1.37500
O33         O  0.34031591  0.82407428  0.39315897    -0.56800
O34         O  0.42452224  0.92740467  0.41956224    -0.55600
C35         C  0.44711655  0.81195952  0.32944252     0.75100
O36         O  0.49052020  0.92304754  0.42111628    -0.58000
O37         O  0.39463542  0.81279215  0.42062624    -0.56500
O38         O  0.47670635  0.93498630  0.32797220    -0.56400
O39         O  0.40805902  0.81370576  0.32765573    -0.55600
O40         O  0.89542446  0.40835102  0.34472614    -0.56800
C41         C  0.78581848  0.35098538  0.25761068     0.75800
O42         O  0.82530218  0.48724590  0.29905084    -0.58000
C43         C  0.93437387  0.44844581  0.34841518     0.75800
C44         C  0.92579428  0.47710257  0.22561000     0.78200
Cd45       Cd  0.86393936  0.43686406  0.29134290     1.37500
O46         O  0.81952216  0.34919482  0.27580221    -0.56800
O47         O  0.91335601  0.50233618  0.24457518    -0.55600
C48         C  0.81043604  0.47266841  0.33251751     0.78100
O49         O  0.91014741  0.43541703  0.23766196    -0.58000
O50         O  0.78874016  0.39098950  0.25651620    -0.56500
O51         O  0.93977613  0.48048284  0.32544358    -0.56400
O52         O  0.82100732  0.44310125  0.34596198    -0.55600
O53         O  0.51359941  0.42990923  0.41078526    -0.56800
C54         C  0.55346335  0.36115104  0.49124430     0.75800
O55         O  0.66732069  0.49261656  0.45793293    -0.58000
C56         C  0.51907070  0.47095578  0.40719284     0.75800
C57         C  0.56885829  0.49923807  0.03044587     0.78200
Cd58       Cd  0.57608790  0.45352278  0.46291004     1.37500
O59         O  0.51947228  0.36946505  0.48304356    -0.56800
O60         O  0.53948051  0.45605349  0.02281536    -0.55600
C61         C  0.66658052  0.48306191  0.42290872     0.78100
O62         O  0.60331263  0.52215272  0.00695511    -0.58000
O63         O  0.59662172  0.39425257  0.98422079    -0.56500
O64         O  0.54859418  0.50202930  0.43025989    -0.56400
O65         O  0.62493188  0.46233666  0.40695339    -0.55600
O66         O  0.57340163  0.09798291  0.07379576    -0.56800
C67         C  0.62623001  0.20326206  0.16945757     0.75800
O68         O  0.50317900  0.17922308  0.10382926    -0.58000
C69         C  0.52965118  0.07011603  0.06248827     0.75800
C70         C  0.49858626  0.06566010  0.18230890     0.78200
Cd71       Cd  0.54596917  0.13529042  0.12342599     1.37500
O72         O  0.63276491  0.17739266  0.14594880    -0.56800
O73         O  0.53903117  0.07659059  0.16672120    -0.55600
C74         C  0.53523699  0.20299776  0.07859453     0.78100
O75         O  0.47728411  0.08733324  0.17014397    -0.58000
O76         O  0.58326497  0.19676105  0.17125492    -0.56500
O77         O  0.49620030  0.07331563  0.07955648    -0.56400
O78         O  0.56966555  0.19420718  0.07499033    -0.55600
C79         C  0.56940632  0.25964553  0.02485335    -0.11300
C80         C  0.53461832  0.23996652  0.05422981     0.05700
C81         C  0.50268100  0.25777500  0.06004024    -0.06600
C82         C  0.50752624  0.29559800  0.03768721    -0.07300
C83         C  0.54412738  0.31663654  0.00975171    -0.01900
C84         C  0.57456118  0.29752148  0.00294527     0.05000
N85         N  0.61069767  0.31574674  0.97358521     0.67500
H86         H  0.59379354  0.24618269  0.01906795     0.16400
H87         H  0.48327774  0.30980331  0.54295260     0.16100
N88         N  0.46660587  0.23946926  0.08939371     0.75200
O89         O  0.65507166  0.34356769  0.98226330    -0.38300
O90         O  0.60050304  0.29491904  0.94182766    -0.38200
O91         O  0.47639768  0.26033217  0.12112695    -0.38900
O92         O  0.42132833  0.20949716  0.58000267    -0.39000
C93         C  0.71148228  0.49924345  0.36184869    -0.11300
C94         C  0.71089930  0.49279045  0.40135794     0.05700
C95         C  0.74916389  0.48884105  0.41819563    -0.06600
C96         C  0.78313492  0.48529564  0.39508840    -0.07300
C97         C  0.78103584  0.48739273  0.35530626    -0.01900
C98         C  0.74674253  0.49762877  0.33883506     0.05000
N99         N  0.74500616  0.50342155  0.29875244     0.67500
H100        H  0.68311226  0.50364692  0.34850940     0.16400
H101        H  0.81021837  0.47891836  0.40838135     0.16100
N102        N  0.75206655  0.48476830  0.45839542     0.75200
O103        O  0.71410372  0.46891472  0.27892815    -0.38300
O104        O  0.76497370  0.54482077  0.28519163    -0.38200
O105        O  0.73592783  0.44427533  0.47295054    -0.38900
O106        O  0.78087149  0.52118521  0.47743302    -0.39000
C107        C  0.70829246  0.23634517  0.20125911    -0.11300
C108        C  0.66640633  0.23954135  0.19359502     0.05700
C109        C  0.66332582  0.27761525  0.20957392    -0.06600
C110        C  0.70201134  0.31191214  0.23129458    -0.07300
C111        C  0.74446178  0.30971370  0.23817870    -0.01900
C112        C  0.74698394  0.27065570  0.22370470     0.05000
N113        N  0.78882036  0.26589766  0.23047094     0.67500
H114        H  0.71105785  0.20691813  0.18978486     0.16400
H115        H  0.69897609  0.34137462  0.24236846     0.16100
N116        N  0.62211563  0.28341266  0.20278583     0.75200
O117        O  0.78781606  0.24012044  0.25753366    -0.38300
O118        O  0.82049205  0.27726088  0.20466142    -0.38200
O119        O  0.59191663  0.27501405  0.22925347    -0.38900
O120        O  0.62239432  0.30702052  0.17433952    -0.39000
C121        C  0.50897454  0.01080835  0.22414632    -0.11300
C122        C  0.47972062  0.02990207  0.21352263     0.05700
C123        C  0.43543034  0.01496931  0.23353561    -0.06600
C124        C  0.42280375  0.98323883  0.26431007    -0.07300
C125        C  0.45374661  0.96627833  0.27576895    -0.01900
C126        C  0.49667286  0.97962685  0.25453819     0.05000
N127        N  0.52816565  0.96129418  0.26293590     0.67500
H128        H  0.54264213  0.02048842  0.20896551     0.16400
H129        H  0.38927330  0.97286101  0.27994770     0.16100
N130        N  0.40319560  0.03181799  0.22346693     0.75200
O131        O  0.52261473  0.92546845  0.24499024    -0.38300
O132        O  0.56766561  0.98691737  0.28082525    -0.38200
O133        O  0.36508632  0.00540755  0.20430874    -0.38900
O134        O  0.40632440  0.06691409  0.24100365    -0.39000
C135        C  0.53210878  0.00196102  0.47558700    -0.11300
C136        C  0.48178999  0.97117773  0.46903223     0.05700
C137        C  0.44771310  0.97167920  0.49458949    -0.06600
C138        C  0.46636834  0.00066622  0.02686474    -0.07300
C139        C  0.51625411  0.03510278  0.03108499    -0.01900
C140        C  0.55011410  0.03574572  0.00448257     0.05000
N141        N  0.60130322  0.06986564  0.00691224     0.67500
H142        H  0.55878309  0.00194337  0.45625306     0.16400
H143        H  0.43956829  0.99848175  0.04721626     0.16100
N144        N  0.39609937  0.93947858  0.49074324     0.75200
O145        O  0.62565092  0.05121068  0.52687226    -0.38300
O146        O  0.61899633  0.10601556  0.98581097    -0.38200
O147        O  0.37606511  0.90206119  0.51041273    -0.38900
O148        O  0.36905184  0.94632761  0.98145171    -0.39000
C149        C  0.01802960  0.50080098  0.37322075    -0.11300
C150        C  0.97224810  0.45926255  0.37787223     0.05700
C151        C  0.96351537  0.43232208  0.41141721    -0.06600
C152        C  0.99956823  0.44861122  0.43997898    -0.07300
C153        C  0.04373587  0.49194046  0.43612703    -0.01900
C154        C  0.05332624  0.51748088  0.40193342     0.05000
N155        N  0.09828452  0.56113079  0.39609177     0.67500
H156        H  0.02612378  0.52164540  0.34752240     0.16400
H157        H  0.99146857  0.42906036  0.46637302     0.16100
N158        N  0.91715590  0.39070130  0.41851729     0.75200
O159        O  0.13389902  0.56017665  0.38094896    -0.38300
O160        O  0.09779144  0.59945577  0.39608879    -0.38200
O161        O  0.91381133  0.35061439  0.41697234    -0.38900
O162        O  0.88444482  0.39467921  0.43571504    -0.39000
C163        C  0.95234723  0.45883384  0.16528174    -0.11300
C164        C  0.95622465  0.49358154  0.19073528     0.05700
C165        C  0.99024328  0.54172430  0.18284573    -0.06600
C166        C  0.02079347  0.55372909  0.15083465    -0.07300
C167        C  0.01821208  0.51862119  0.12618713    -0.01900
C168        C  0.98253811  0.47061036  0.13342961     0.05000
N169        N  0.97674853  0.43289070  0.10935211     0.67500
H170        H  0.92589174  0.42165827  0.17036837     0.16400
H171        H  0.04774502  0.59078477  0.14595439     0.16100
N172        N  0.99632506  0.57866070  0.20794945     0.75200
O173        O  0.99639723  0.40914240  0.11892488    -0.38300
O174        O  0.94245351  0.41575663  0.08519235    -0.38200
O175        O  0.03136877  0.59567868  0.23145701    -0.38900
O176        O  0.97516912  0.60160119  0.20033403    -0.39000
C177        C  0.26337935  0.75562395  0.44170246    -0.11300
C178        C  0.31185973  0.76464058  0.44297750     0.05700
C179        C  0.32295240  0.73781373  0.46842011    -0.06600
C180        C  0.28594724  0.70225341  0.49041278    -0.07300
C181        C  0.23729923  0.69194253  0.48811301    -0.01900
C182        C  0.22619540  0.71982871  0.46408087     0.05000
N183        N  0.17719573  0.71076521  0.46042161     0.67500
H184        H  0.25395828  0.77602635  0.42275233     0.16400
H185        H  0.29536802  0.68138542  0.50886459     0.16100
N186        N  0.37121499  0.74476024  0.47156752     0.75200
O187        O  0.16382956  0.73414485  0.48049585    -0.38300
O188        O  0.15248801  0.68934666  0.43132515    -0.38200
O189        O  0.39794449  0.76814481  0.49930614    -0.38900
O190        O  0.38185574  0.71827255  0.45288456    -0.39000
C191        C  0.52817275  0.51348400  0.12775834    -0.11300
C192        C  0.53003027  0.55716749  0.12449471     0.05700
C193        C  0.55150995  0.58491175  0.09154250    -0.06600
C194        C  0.56756205  0.56696337  0.06206548    -0.07300
C195        C  0.56147247  0.52138672  0.06443269    -0.01900
C196        C  0.54270954  0.49517002  0.09814227     0.05000
N197        N  0.53667223  0.44904470  0.10241290     0.67500
H198        H  0.51294136  0.49181718  0.15303272     0.16400
H199        H  0.58171975  0.58743487  0.03610783     0.16100
N200        N  0.55406459  0.62941262  0.08615328     0.75200
O201        O  0.56968686  0.44489193  0.11899955    -0.38300
O202        O  0.49704610  0.41346486  0.59906289    -0.38200
O203        O  0.59509930  0.66725326  0.08882387    -0.38900
O204        O  0.51918421  0.63028013  0.06945718    -0.39000
C205        C  0.48414119  0.54192595  0.34213970    -0.11300
C206        C  0.46370368  0.51138554  0.31094673     0.05700
C207        C  0.45520587  0.46469464  0.31377171    -0.06600
C208        C  0.47142381  0.45121423  0.34614730    -0.07300
C209        C  0.49486335  0.48310726  0.37642171    -0.01900
C210        C  0.49879009  0.52814217  0.37478954     0.05000
N211        N  0.51750917  0.56065013  0.40595467     0.67500
H212        H  0.48926115  0.57727896  0.34111540     0.16400
H213        H  0.46711311  0.41620044  0.34694744     0.16100
N214        N  0.43244043  0.43128102  0.28355329     0.75200
O215        O  0.56090238  0.59536635  0.40458496    -0.38300
O216        O  0.48766227  0.56183199  0.42903566    -0.38200
O217        O  0.45872405  0.42310511  0.26151716    -0.38900
O218        O  0.38689381  0.40208242  0.28498988    -0.39000
C219        C  0.40830916  0.73999691  0.28952641    -0.11300
C220        C  0.45161319  0.77665147  0.30577420     0.05700
C221        C  0.49615617  0.77758846  0.29883782    -0.06600
C222        C  0.49584138  0.74103388  0.27735812    -0.07300
C223        C  0.45181371  0.70336765  0.26261982    -0.01900
C224        C  0.40790436  0.70390791  0.26828107     0.05000
N225        N  0.36222738  0.66821051  0.25245133     0.67500
H226        H  0.37356113  0.73854316  0.29379070     0.16400
H227        H  0.53010980  0.74159410  0.27293200     0.16100
N228        N  0.54189386  0.81544140  0.31267459     0.75200
O229        O  0.33278192  0.63382641  0.27296960    -0.38300
O230        O  0.34651418  0.67727031  0.22252128    -0.38200
O231        O  0.56259903  0.80800218  0.34028402    -0.38900
O232        O  0.56653131  0.85150562  0.29208091    -0.39000
C233        C  0.31671791  0.54351844  0.10432740    -0.11300
C234        C  0.31062889  0.53534619  0.14368154     0.05700
C235        C  0.26465539  0.52217567  0.15998215    -0.06600
C236        C  0.22761895  0.52131890  0.13743052    -0.07300
C237        C  0.23481265  0.53195524  0.09851354    -0.01900
C238        C  0.27937588  0.54169817  0.08169925     0.05000
N239        N  0.28914725  0.55409850  0.04247456     0.67500
H240        H  0.35159304  0.55339684  0.09111882     0.16400
H241        H  0.19331800  0.51340757  0.15065982     0.16100
N242        N  0.25566331  0.51203891  0.19959302     0.75200
O243        O  0.31046311  0.59729826  0.03310208    -0.38300
O244        O  0.28817512  0.52415098  0.01933976    -0.38200
O245        O  0.25771833  0.54339553  0.22168956    -0.38900
O246        O  0.23465055  0.46943360  0.21054865    -0.39000
O247        O  0.50821931  0.60891551  0.65877886    -0.56800
C248        C  0.45003853  0.66202753  0.74351516     0.75800
O249        O  0.35186975  0.53032144  0.69967071    -0.58000
C250        C  0.50389388  0.56845851  0.65402833     0.75800
C251        C  0.45493518  0.53147034  0.77573962     0.78200
Cd252      Cd  0.44269008  0.57786206  0.71005823     1.37500
O253        O  0.48752188  0.66452984  0.72797826    -0.56800
O254        O  0.48320207  0.57478659  0.76761363    -0.55600
C255        C  0.35421539  0.54640230  0.66646078     0.78100
O256        O  0.41967398  0.50772319  0.75290654    -0.58000
O257        O  0.41131613  0.62179154  0.74291013    -0.56500
O258        O  0.47396982  0.53578067  0.67575475    -0.56400
O259        O  0.39678411  0.57453202  0.65389958    -0.55600
O260        O  0.08596249  0.57586237  0.58777097    -0.56800
C261        C  0.19947615  0.64813136  0.50713199     0.75800
O262        O  0.18405549  0.52280985  0.54360705    -0.58000
C263        C  0.05442169  0.53278174  0.59485278     0.75800
C264        C  0.07468564  0.51348035  0.96990884     0.78200
Cd265      Cd  0.12947332  0.55709821  0.53792101     1.37500
O266        O  0.15860571  0.64172386  0.51896297    -0.56800
O267        O  0.09144842  0.55660662  0.97813884    -0.55600
C268        C  0.19766571  0.53800632  0.57721885     0.78100
O269        O  0.08421495  0.48938942  0.99295550    -0.58000
O270        O  0.20652382  0.61282827  0.01045292    -0.56500
O271        O  0.05691194  0.50215111  0.57458531    -0.56400
O272        O  0.17858797  0.55991132  0.59233322    -0.55600
O273        O  0.39665822  0.90926376  0.82369318    -0.56800
C274        C  0.34966706  0.80143677  0.91809325     0.75800
O275        O  0.47884532  0.84042815  0.85209724    -0.58000
C276        C  0.43939910  0.93481864  0.80976607     0.75800
C277        C  0.46576801  0.93900013  0.93552033     0.78200
Cd278      Cd  0.42646993  0.87425917  0.87300208     1.37500
O279        O  0.33968815  0.82393916  0.89351533    -0.56800
O280        O  0.42450033  0.92659116  0.92059550    -0.55600
C281        C  0.44587732  0.81154753  0.82922378     0.75100
O282        O  0.49101695  0.92314101  0.92016014    -0.58000
O283        O  0.39419602  0.81245105  0.92039841    -0.56500
O284        O  0.47415841  0.93382847  0.82676209    -0.56400
O285        O  0.40657193  0.81287970  0.82791841    -0.55600
O286        O  0.89524014  0.40796426  0.84447852    -0.56800
C287        C  0.78486603  0.35020983  0.75792212     0.75800
O288        O  0.82414624  0.48636062  0.79845300    -0.58000
C289        C  0.93382576  0.44831029  0.84835374     0.75800
C290        C  0.92520308  0.47668865  0.72542323     0.78200
Cd291      Cd  0.86326896  0.43632361  0.79119459     1.37500
O292        O  0.81861998  0.34846386  0.77607963    -0.56800
O293        O  0.91273824  0.50184402  0.74445800    -0.55600
C294        C  0.80970919  0.47233464  0.83209103     0.78100
O295        O  0.90950647  0.43495470  0.73738431    -0.58000
O296        O  0.78793933  0.39027015  0.75662118    -0.56500
O297        O  0.93875907  0.48032325  0.82554885    -0.56400
O298        O  0.82072153  0.44321257  0.84583262    -0.55600
O299        O  0.51297082  0.42983536  0.91076772    -0.56800
C300        C  0.55343044  0.36116221  0.99118104     0.75800
O301        O  0.66688618  0.49286231  0.95742662    -0.58000
C302        C  0.51882010  0.47101485  0.90703031     0.75800
C303        C  0.56947079  0.49959599  0.53063658     0.78200
Cd304      Cd  0.57565543  0.45335459  0.96271701     1.37500
O305        O  0.51930977  0.36933534  0.98310696    -0.56800
O306        O  0.54043960  0.45624770  0.52331027    -0.55600
C307        C  0.66595507  0.48286009  0.92248142     0.78100
O308        O  0.60351700  0.52258746  0.50685689    -0.58000
O309        O  0.59673521  0.39418916  0.48444410    -0.56500
O310        O  0.54865032  0.50211856  0.92993416    -0.56400
O311        O  0.62418679  0.46164885  0.90671953    -0.55600
O312        O  0.57142802  0.09702515  0.57488926    -0.56800
C313        C  0.62457451  0.20235269  0.67039536     0.75800
O314        O  0.50195456  0.17919715  0.60422929    -0.58000
C315        C  0.52779398  0.07003644  0.56294878     0.75800
C316        C  0.49535283  0.06466558  0.68254311     0.78200
Cd317      Cd  0.54415653  0.13484600  0.62421408     1.37500
O318        O  0.63089455  0.17630081  0.64693970    -0.56800
O319        O  0.53558134  0.07495986  0.66689596    -0.55600
C320        C  0.53424433  0.20287902  0.57911689     0.78100
O321        O  0.47505282  0.08747190  0.67085183    -0.58000
O322        O  0.58172751  0.19615064  0.67214168    -0.56500
O323        O  0.49447993  0.07383632  0.57963873    -0.56400
O324        O  0.56860698  0.19394920  0.57579871    -0.55600
C325        C  0.56911326  0.25962948  0.52547091    -0.11300
C326        C  0.53393734  0.23987868  0.55457980     0.05700
C327        C  0.50181845  0.25756660  0.55992807    -0.06600
C328        C  0.50692953  0.29541559  0.53747338    -0.07300
C329        C  0.54391308  0.31654971  0.50983562    -0.01900
C330        C  0.57446022  0.29747208  0.50340548     0.05000
N331        N  0.61086452  0.31565972  0.47424363     0.67500
H332        H  0.59361535  0.24621802  0.52000034     0.16400
H333        H  0.48401496  0.31006242  0.04348401     0.16100
N334        N  0.46519196  0.23903612  0.58886752     0.75200
O335        O  0.65520128  0.34322143  0.48316914    -0.38300
O336        O  0.60084822  0.29495730  0.44243587    -0.38200
O337        O  0.47429093  0.25979409  0.62061889    -0.38900
O338        O  0.42254038  0.21002216  0.08099950    -0.39000
C339        C  0.71039520  0.49848594  0.86124818    -0.11300
C340        C  0.71021233  0.49264108  0.90081433     0.05700
C341        C  0.74885957  0.48934007  0.91765659    -0.06600
C342        C  0.78280102  0.48573666  0.89455513    -0.07300
C343        C  0.78030373  0.48717312  0.85475616    -0.01900
C344        C  0.74563775  0.49685669  0.83822164     0.05000
N345        N  0.74356122  0.50213724  0.79809898     0.67500
H346        H  0.68174638  0.50243707  0.84789367     0.16400
H347        H  0.81019074  0.47983638  0.90788644     0.16100
N348        N  0.75222674  0.48601781  0.95789393     0.75200
O349        O  0.71254131  0.46735422  0.77857235    -0.38300
O350        O  0.76325108  0.54336679  0.78423092    -0.38200
O351        O  0.73664528  0.44584273  0.97289411    -0.38900
O352        O  0.78092503  0.52287531  0.97651992    -0.39000
C353        C  0.70652499  0.23505022  0.70234553    -0.11300
C354        C  0.66487527  0.23857607  0.69447591     0.05700
C355        C  0.66218194  0.27700764  0.71012280    -0.06600
C356        C  0.70103081  0.31134753  0.73168286    -0.07300
C357        C  0.74328317  0.30885299  0.73873739    -0.01900
C358        C  0.74538008  0.26940649  0.72465297     0.05000
N359        N  0.78691645  0.26425254  0.73171346     0.67500
H360        H  0.70897497  0.20533666  0.69113880     0.16400
H361        H  0.69828501  0.34108287  0.74247991     0.16100
N362        N  0.62122090  0.28313312  0.70311928     0.75200
O363        O  0.78551884  0.23851680  0.75895328    -0.38300
O364        O  0.81865593  0.27519653  0.70602133    -0.38200
O365        O  0.59088143  0.27487229  0.72944575    -0.38900
O366        O  0.62186197  0.30684576  0.67462503    -0.39000
C367        C  0.50198712  0.00536668  0.72140336    -0.11300
C368        C  0.47556184  0.02819218  0.71321168     0.05700
C369        C  0.43348975  0.01644685  0.73529127    -0.06600
C370        C  0.42075413  0.98453150  0.76595240    -0.07300
C371        C  0.44944586  0.96428867  0.77519473    -0.01900
C372        C  0.48959288  0.97403468  0.75168988     0.05000
N373        N  0.51816388  0.95197580  0.75780234     0.67500
H374        H  0.53359942  0.01230961  0.70443812     0.16400
H375        H  0.38927142  0.97685597  0.78338707     0.16100
N376        N  0.40396330  0.03707331  0.72767614     0.75200
O377        O  0.50770720  0.91472330  0.73961893    -0.38300
O378        O  0.55959308  0.97528468  0.77367955    -0.38200
O379        O  0.36388595  0.01303927  0.71008556    -0.38900
O380        O  0.41167242  0.07338046  0.74604485    -0.39000
C381        C  0.53322142  0.00333388  0.97403521    -0.11300
C382        C  0.48303106  0.97043239  0.96924357     0.05700
C383        C  0.44956098  0.96881615  0.99650969    -0.06600
C384        C  0.46420833  0.00329236  0.52510052    -0.07300
C385        C  0.51439666  0.03543181  0.53120182    -0.01900
C386        C  0.54871354  0.03413121  0.50619179     0.05000
N387        N  0.60025638  0.06581969  0.51054458     0.67500
H388        H  0.55941414  0.00491100  0.95335842     0.16400
H389        H  0.43692235  0.00265822  0.54412076     0.16100
N390        N  0.39835064  0.93429910  0.99447402     0.75200
O391        O  0.62975224  0.05781252  0.02162543    -0.38300
O392        O  0.62138495  0.10208972  0.48963205    -0.38200
O393        O  0.38166117  0.89704865  0.01418523    -0.38900
O394        O  0.36966345  0.95394849  0.47600978    -0.39000
C395        C  0.01678817  0.50206228  0.87378452    -0.11300
C396        C  0.97180875  0.45948460  0.87782875     0.05700
C397        C  0.96394494  0.43176838  0.91078793    -0.06600
C398        C  0.99998553  0.44824262  0.93938395    -0.07300
C399        C  0.04326443  0.49247006  0.93616480    -0.01900
C400        C  0.05201992  0.51888521  0.90253267     0.05000
N401        N  0.09598304  0.56359671  0.89732503     0.67500
H402        H  0.02428558  0.52359077  0.84855154     0.16400
H403        H  0.99251883  0.42794592  0.96532935     0.16100
N404        N  0.91846910  0.38890037  0.91724644     0.75200
O405        O  0.13242568  0.56462573  0.88178325    -0.38300
O406        O  0.09365539  0.60096280  0.89813857    -0.38200
O407        O  0.91690198  0.34967915  0.91457101    -0.38900
O408        O  0.88490137  0.39078232  0.93505434    -0.39000
C409        C  0.95207029  0.45872816  0.66508230    -0.11300
C410        C  0.95573084  0.49334058  0.69058410     0.05700
C411        C  0.98958609  0.54154950  0.68274174    -0.06600
C412        C  0.02022190  0.55374890  0.65075765    -0.07300
C413        C  0.01782927  0.51878331  0.62604151    -0.01900
C414        C  0.98227361  0.47070488  0.63321384     0.05000
N415        N  0.97656361  0.43311707  0.60900973     0.67500
H416        H  0.92573344  0.42150865  0.67011322     0.16400
H417        H  0.04704522  0.59085165  0.64592160     0.16100
N418        N  0.99533120  0.57838432  0.70781808     0.75200
O419        O  0.99637680  0.40946203  0.61841427    -0.38300
O420        O  0.94220093  0.41596424  0.58490709    -0.38200
O421        O  0.03049862  0.59581638  0.73121477    -0.38900
O422        O  0.97364898  0.60084949  0.70027156    -0.39000
C423        C  0.26323579  0.75551101  0.94225990    -0.11300
C424        C  0.31161264  0.76423238  0.94303651     0.05700
C425        C  0.32276089  0.73694598  0.96791507    -0.06600
C426        C  0.28586522  0.70123001  0.98986500    -0.07300
C427        C  0.23731585  0.69127138  0.98807031    -0.01900
C428        C  0.22617814  0.71957878  0.96459885     0.05000
N429        N  0.17721190  0.71070409  0.96134471     0.67500
H430        H  0.25378595  0.77624503  0.92371882     0.16400
H431        H  0.29526204  0.67997414  0.00786891     0.16100
N432        N  0.37093254  0.74355691  0.97047229     0.75200
O433        O  0.16396915  0.73364108  0.98209745    -0.38300
O434        O  0.15249450  0.69016221  0.93202568    -0.38200
O435        O  0.39801468  0.76640340  0.99822542    -0.38900
O436        O  0.38120481  0.71728222  0.95110450    -0.39000
C437        C  0.52897045  0.51403154  0.62797493    -0.11300
C438        C  0.53017566  0.55738902  0.62448857     0.05700
C439        C  0.55133985  0.58500626  0.59143066    -0.06600
C440        C  0.56756593  0.56715089  0.56200536    -0.07300
C441        C  0.56208794  0.52183038  0.56458020    -0.01900
C442        C  0.54384144  0.49586114  0.59845997     0.05000
N443        N  0.53879219  0.45017014  0.60303805     0.67500
H444        H  0.51406467  0.49253678  0.65337242     0.16400
H445        H  0.58138360  0.58746168  0.53594086     0.16100
N446        N  0.55338841  0.62925458  0.58589391     0.75200
O447        O  0.57240140  0.44693887  0.61956878    -0.38300
O448        O  0.49458653  0.41286990  0.09817922    -0.38200
O449        O  0.59420954  0.66733675  0.58852508    -0.38900
O450        O  0.51828758  0.62967884  0.56916613    -0.39000
C451        C  0.48433578  0.54223307  0.84187587    -0.11300
C452        C  0.46343157  0.51151311  0.81083760     0.05700
C453        C  0.45453812  0.46469476  0.81381778    -0.06600
C454        C  0.47078645  0.45121888  0.84617701    -0.07300
C455        C  0.49466595  0.48325763  0.87628369    -0.01900
C456        C  0.49904281  0.52847643  0.87450755     0.05000
N457        N  0.51829989  0.56120834  0.90550351     0.67500
H458        H  0.48978165  0.57770505  0.84074354     0.16400
H459        H  0.46614181  0.41607634  0.84709165     0.16100
N460        N  0.43131914  0.43111898  0.78376835     0.75200
O461        O  0.56179776  0.59569687  0.90383642    -0.38300
O462        O  0.48885066  0.56279723  0.92876374    -0.38200
O463        O  0.45723206  0.42257083  0.76162674    -0.38900
O464        O  0.38573543  0.40215377  0.78547074    -0.39000
C465        C  0.40703515  0.73942572  0.78942021    -0.11300
C466        C  0.45035810  0.77626025  0.80550333     0.05700
C467        C  0.49496761  0.77740879  0.79838112    -0.06600
C468        C  0.49471978  0.74086214  0.77694575    -0.07300
C469        C  0.45069776  0.70300088  0.76238819    -0.01900
C470        C  0.40669985  0.70334820  0.76818391     0.05000
N471        N  0.36101528  0.66749098  0.75248098     0.67500
H472        H  0.37223857  0.73783454  0.79379745     0.16400
H473        H  0.52905913  0.74160216  0.77239682     0.16100
N474        N  0.54071299  0.81548177  0.81198719     0.75200
O475        O  0.33179042  0.63306540  0.77306204    -0.38300
O476        O  0.34505288  0.67640834  0.72261948    -0.38200
O477        O  0.56166947  0.80838467  0.83960274    -0.38900
O478        O  0.56507106  0.85145334  0.79123965    -0.39000
C479        C  0.31668640  0.54389878  0.60396672    -0.11300
C480        C  0.31042634  0.53519521  0.64325004     0.05700
C481        C  0.26431208  0.52157123  0.65949827    -0.06600
C482        C  0.22726186  0.52074470  0.63698780    -0.07300
C483        C  0.23463134  0.53195520  0.59817207    -0.01900
C484        C  0.27937512  0.54220890  0.58138706     0.05000
N485        N  0.28938451  0.55538242  0.54231213     0.67500
H486        H  0.35168973  0.55417259  0.59080728     0.16400
H487        H  0.19283743  0.51248038  0.65019231     0.16100
N488        N  0.25522930  0.51108287  0.69905712     0.75200
O489        O  0.31021088  0.59872501  0.53345218    -0.38300
O490        O  0.28912000  0.52610581  0.51881668    -0.38200
O491        O  0.25723070  0.54224392  0.72135624    -0.38900
O492        O  0.23424365  0.46838920  0.70978261    -0.39000
loop_ 
_geom_bond_atom_site_label_1 
_geom_bond_atom_site_label_2 
_geom_bond_distance 
_geom_bond_site_symmetry_2 
_ccdc_geom_bond_type 
O1            C4   1.270       .  A
O1           Cd6   2.542       .  S
C2           O11   1.263       .  A
C2            O7   1.271       .  A
C2          C223   1.485       .  S
O3            C9   1.269       .  A
O3           Cd6   2.503       .  S
C4           O12   1.264       .  A
C4          C192   1.487       .  S
C5           O10   1.268       .  A
C5            O8   1.266       .  A
C5          C206   1.484       .  S
Cd6          O13   2.421       .  S
Cd6          O12   2.388       .  S
Cd6          O11   2.414       .  S
Cd6           O7   2.521       .  S
Cd6          O10   2.525       .  S
Cd6           O8   2.424       .  S
C9           O13   1.264       .  A
C9          C234   1.483       .  S
O14          C17   1.271       .  A
O14         Cd19   2.489       .  S
C15          O20   1.271       .  A
C15         O270   1.264       .  A
C15         C427   1.480   1_554  S
O16          C22   1.270       .  A
O16         Cd19   2.500       .  S
C17          O25   1.265       .  A
C17         C167   1.490       .  S
C18          O23   1.269       .  A
C18          O21   1.262       .  A
C18         C153   1.473       .  S
Cd19         O26   2.435       .  S
Cd19         O25   2.446       .  S
Cd19         O20   2.520       .  S
Cd19        O270   2.389       .  S
Cd19        O269   2.488   1_554  S
Cd19        O267   2.423   1_554  S
O21        Cd265   2.425       .  S
C22          O26   1.265       .  A
C22         C237   1.477       .  S
O23        Cd265   2.487       .  S
O24         C261   1.264       .  A
O24        Cd265   2.390       .  S
O27          C30   1.274       .  A
O27         Cd32   2.509       .  S
C28          O37   1.267       .  A
C28          O33   1.275       .  A
C28         C178   1.490       .  S
O29          C35   1.274       .  A
O29         Cd32   2.526       .  S
C30          O38   1.266       .  A
C30         C125   1.486       .  S
C31          O36   1.274       .  A
C31          O34   1.267       .  A
C31         C136   1.481       .  S
Cd32         O39   2.375       .  S
Cd32         O38   2.397       .  S
Cd32         O37   2.415       .  S
Cd32         O33   2.489       .  S
Cd32         O36   2.477       .  S
Cd32         O34   2.416       .  S
C35          O39   1.267       .  A
C35         C220   1.488       .  S
O40          C43   1.270       .  A
O40         Cd45   2.516       .  S
C41          O50   1.264       .  A
C41          O46   1.269       .  A
C41         C111   1.484       .  S
O42          C48   1.269       .  A
O42         Cd45   2.516       .  S
C43          O51   1.265       .  A
C43         C150   1.483       .  S
C44          O49   1.265       .  A
C44          O47   1.270       .  A
C44         C164   1.484       .  S
Cd45         O52   2.423       .  S
Cd45         O51   2.396       .  S
Cd45         O50   2.403       .  S
Cd45         O46   2.529       .  S
Cd45         O49   2.406       .  S
Cd45         O47   2.520       .  S
C48          O52   1.264       .  A
C48          C97   1.482       .  S
O53          C56   1.270       .  A
O53         Cd58   2.511       .  S
C54          O59   1.268       .  A
C54         O309   1.264       .  A
C54         C329   1.483       .  S
O55          C61   1.269       .  A
O55         Cd58   2.499       .  S
C56          O64   1.263       .  A
C56         C209   1.491       .  S
C57          O62   1.268       .  A
C57          O60   1.263       .  A
C57         C195   1.477       .  S
Cd58         O65   2.431       .  S
Cd58         O64   2.448       .  S
Cd58         O59   2.504       .  S
Cd58        O309   2.460       .  S
Cd58        O308   2.500       .  S
Cd58        O306   2.431       .  S
O60        Cd304   2.430   1_554  S
C61          O65   1.265       .  A
C61          C94   1.481       .  S
O62        Cd304   2.499   1_554  S
O63         C300   1.264       .  A
O63        Cd304   2.460       .  S
O66          C69   1.273       .  A
O66         Cd71   2.524       .  S
C67          O76   1.266       .  A
C67          O72   1.273       .  A
C67         C108   1.486       .  S
O68          C74   1.275       .  A
O68         Cd71   2.519       .  S
C69          O77   1.267       .  A
C69         C139   1.489       .  S
C70          O75   1.274       .  A
C70          O73   1.266       .  A
C70         C122   1.492       .  S
Cd71         O78   2.392       .  S
Cd71         O77   2.391       .  S
Cd71         O76   2.418       .  S
Cd71         O72   2.492       .  S
Cd71         O75   2.537       .  S
Cd71         O73   2.373       .  S
C74          O78   1.266       .  A
C74          C80   1.491       .  S
C79          C80   1.407       .  A
C79          C84   1.397       .  A
C79          H86   1.084       .  S
C80          C81   1.414       .  A
C81          C82   1.407       .  A
C81          N88   1.428       .  S
C82          C83   1.406       .  A
C82         H333   1.085       .  S
C83         C300   1.483   1_554  S
C83          C84   1.410       .  A
C84          N85   1.429   1_554  S
N85          O89   1.262       .  A
N85          O90   1.262       .  A
H87         C328   1.085       .  S
N88         O338   1.262       .  A
N88          O91   1.262       .  A
O92         N334   1.262       .  A
C93          C94   1.405       .  A
C93          C98   1.402       .  A
C93         H100   1.084       .  S
C94          C95   1.410       .  A
C95          C96   1.400       .  A
C95         N102   1.428       .  S
C96          C97   1.405       .  A
C96         H101   1.085       .  S
C97          C98   1.411       .  A
C98          N99   1.428       .  S
N99         O103   1.262       .  A
N99         O104   1.262       .  A
N102        O106   1.262       .  A
N102        O105   1.261       .  A
C107        C108   1.406       .  A
C107        C112   1.408       .  A
C107        H114   1.087       .  S
C108        C109   1.414       .  A
C109        C110   1.393       .  A
C109        N116   1.429       .  S
C110        C111   1.401       .  A
C110        H115   1.088       .  S
C111        C112   1.414       .  A
C112        N113   1.428       .  S
N113        O117   1.262       .  A
N113        O118   1.262       .  A
N116        O120   1.262       .  A
N116        O119   1.262       .  A
C121        C122   1.404       .  A
C121        C126   1.391   1_545  A
C121        H128   1.086       .  S
C122        C123   1.416       .  A
C123        C124   1.411   1_545  A
C123        N130   1.428       .  S
C124        C125   1.407       .  A
C124        H129   1.086       .  S
C125        C126   1.412       .  A
C126        N127   1.430       .  S
N127        O131   1.262       .  A
N127        O132   1.262       .  A
N130        O134   1.262       .  A
N130        O133   1.262       .  A
C135        C136   1.404   1_545  A
C135        C386   1.407       .  A
C135        H142   1.085       .  S
C136        C137   1.412       .  A
C137        C384   1.394   1_565  A
C137        N144   1.430       .  S
C138        C139   1.405       .  A
C138        C383   1.394   1_544  A
C138        H143   1.085   1_545  S
C139        C140   1.416       .  A
C140        C381   1.407   1_554  A
C140        N141   1.427       .  S
N141        O391   1.262       .  A
N141        O146   1.262   1_554  A
N144        O394   1.262       .  A
N144        O147   1.262       .  A
O145        N387   1.262       .  A
O148        N390   1.262       .  A
C149        C150   1.404   1_455  A
C149        C154   1.394       .  A
C149        H156   1.083       .  S
C150        C151   1.415       .  A
C151        C152   1.405       .  A
C151        N158   1.428       .  S
C152        C153   1.403   1_655  A
C152        H157   1.083       .  S
C153        C154   1.408       .  A
C154        N155   1.429       .  S
N155        O159   1.262       .  A
N155        O160   1.261       .  A
N158        O162   1.262       .  A
N158        O161   1.262       .  A
C163        C164   1.402       .  A
C163        C168   1.396       .  A
C163        H170   1.085       .  S
C164        C165   1.412       .  A
C165        C166   1.406   1_655  A
C165        N172   1.428       .  S
C166        C167   1.408       .  A
C166        H171   1.084       .  S
C167        C168   1.416   1_455  A
C168        N169   1.429       .  S
N169        O173   1.262       .  A
N169        O174   1.262       .  A
N172        O176   1.262       .  A
N172        O175   1.262   1_655  A
C177        C178   1.407       .  A
C177        C182   1.407       .  A
C177        H184   1.086       .  S
C178        C179   1.417       .  A
C179        C180   1.394       .  A
C179        N186   1.429       .  S
C180        C181   1.400       .  A
C180        H185   1.087       .  S
C181        C261   1.481       .  S
C181        C182   1.413       .  A
C182        N183   1.428       .  S
N183        O187   1.262       .  A
N183        O188   1.261       .  A
N186        O190   1.262       .  A
N186        O189   1.262       .  A
C191        C192   1.404       .  A
C191        C196   1.392       .  A
C191        H198   1.087       .  S
C192        C193   1.417       .  A
C193        C194   1.408       .  A
C193        N200   1.429       .  S
C194        C195   1.405       .  A
C194        H199   1.087       .  S
C195        C196   1.408       .  A
C196        N197   1.429       .  S
N197        O201   1.262       .  A
N197        O448   1.262       .  A
N200        O204   1.262       .  A
N200        O203   1.262       .  A
O202        N443   1.262       .  A
C205        C206   1.400       .  A
C205        C210   1.396       .  A
C205        H212   1.084       .  S
C206        C207   1.413       .  A
C207        C208   1.409       .  A
C207        N214   1.429       .  S
C208        C209   1.408       .  A
C208        H213   1.083       .  S
C209        C210   1.415       .  A
C210        N211   1.429       .  S
N211        O215   1.262       .  A
N211        O216   1.262       .  A
N214        O218   1.262       .  A
N214        O217   1.262       .  A
C219        C220   1.403       .  A
C219        C224   1.391       .  A
C219        H226   1.086       .  S
C220        C221   1.415       .  A
C221        C222   1.410       .  A
C221        N228   1.428       .  S
C222        C223   1.407       .  A
C222        H227   1.086       .  S
C223        C224   1.412       .  A
C224        N225   1.429       .  S
N225        O229   1.262       .  A
N225        O230   1.262       .  A
N228        O232   1.262       .  A
N228        O231   1.262       .  A
C233        C234   1.406       .  A
C233        C238   1.399       .  A
C233        H240   1.085       .  S
C234        C235   1.413       .  A
C235        C236   1.402       .  A
C235        N242   1.428       .  S
C236        C237   1.404       .  A
C236        H241   1.085       .  S
C237        C238   1.409       .  A
C238        N239   1.429       .  S
N239        O243   1.262       .  A
N239        O244   1.262       .  A
N242        O246   1.262       .  A
N242        O245   1.262       .  A
O247        C250   1.270       .  A
O247       Cd252   2.542       .  S
C248        O257   1.263       .  A
C248        O253   1.271       .  A
C248        C469   1.486       .  S
O249        C255   1.269       .  A
O249       Cd252   2.502       .  S
C250        O258   1.264       .  A
C250        C438   1.487       .  S
C251        O256   1.268       .  A
C251        O254   1.266       .  A
C251        C452   1.484       .  S
Cd252       O259   2.420       .  S
Cd252       O258   2.391       .  S
Cd252       O257   2.416       .  S
Cd252       O253   2.521       .  S
Cd252       O256   2.525       .  S
Cd252       O254   2.424       .  S
C255        O259   1.264       .  A
C255        C480   1.483       .  S
O260        C263   1.271       .  A
O260       Cd265   2.493       .  S
C261        O266   1.271       .  A
O262        C268   1.270       .  A
O262       Cd265   2.499       .  S
C263        O271   1.264       .  A
C263        C413   1.490       .  S
C264        O269   1.269       .  A
C264        O267   1.262       .  A
C264        C399   1.474       .  S
Cd265       O272   2.436       .  S
Cd265       O271   2.446       .  S
Cd265       O266   2.523       .  S
C268        O272   1.265       .  A
C268        C483   1.477       .  S
O273        C276   1.273       .  A
O273       Cd278   2.511       .  S
C274        O283   1.267       .  A
C274        O279   1.275       .  A
C274        C424   1.489       .  S
O275        C281   1.274       .  A
O275       Cd278   2.525       .  S
C276        O284   1.265       .  A
C276        C371   1.484       .  S
C277        O282   1.273       .  A
C277        O280   1.266       .  A
C277        C382   1.480       .  S
Cd278       O285   2.378       .  S
Cd278       O284   2.397       .  S
Cd278       O283   2.413       .  S
Cd278       O279   2.486       .  S
Cd278       O282   2.480       .  S
Cd278       O280   2.418       .  S
C281        O285   1.267       .  A
C281        C466   1.488       .  S
O286        C289   1.270       .  A
O286       Cd291   2.519       .  S
C287        O296   1.264       .  A
C287        O292   1.269       .  A
C287        C357   1.484       .  S
O288        C294   1.269       .  A
O288       Cd291   2.516       .  S
C289        O297   1.265       .  A
C289        C396   1.484       .  S
C290        O295   1.265       .  A
C290        O293   1.269       .  A
C290        C410   1.484       .  S
Cd291       O298   2.424       .  S
Cd291       O297   2.394       .  S
Cd291       O296   2.402       .  S
Cd291       O292   2.531       .  S
Cd291       O295   2.409       .  S
Cd291       O293   2.520       .  S
C294        O298   1.265       .  A
C294        C343   1.483       .  S
O299        C302   1.270       .  A
O299       Cd304   2.510       .  S
C300        O305   1.268       .  A
O301        C307   1.269       .  A
O301       Cd304   2.499       .  S
C302        O310   1.263       .  A
C302        C455   1.491       .  S
C303        O308   1.268       .  A
C303        O306   1.263       .  A
C303        C441   1.478       .  S
Cd304       O311   2.430       .  S
Cd304       O310   2.447       .  S
Cd304       O305   2.504       .  S
C307        O311   1.265       .  A
C307        C340   1.481       .  S
O312        C315   1.273       .  A
O312       Cd317   2.525       .  S
C313        O322   1.266       .  A
C313        O318   1.273       .  A
C313        C354   1.486       .  S
O314        C320   1.274       .  A
O314       Cd317   2.519       .  S
C315        O323   1.267       .  A
C315        C385   1.490       .  S
C316        O321   1.274       .  A
C316        O319   1.266       .  A
C316        C368   1.492       .  S
Cd317       O324   2.393       .  S
Cd317       O323   2.390       .  S
Cd317       O322   2.418       .  S
Cd317       O318   2.493       .  S
Cd317       O321   2.539       .  S
Cd317       O319   2.373       .  S
C320        O324   1.266       .  A
C320        C326   1.491       .  S
C325        C326   1.407       .  A
C325        C330   1.397       .  A
C325        H332   1.084       .  S
C326        C327   1.414       .  A
C327        C328   1.407       .  A
C327        N334   1.428       .  S
C328        C329   1.406       .  A
C329        C330   1.410       .  A
C330        N331   1.429       .  S
N331        O335   1.262       .  A
N331        O336   1.262       .  A
N334        O337   1.262       .  A
C339        C340   1.405       .  A
C339        C344   1.402       .  A
C339        H346   1.084       .  S
C340        C341   1.410       .  A
C341        C342   1.400       .  A
C341        N348   1.428       .  S
C342        C343   1.405       .  A
C342        H347   1.085       .  S
C343        C344   1.411       .  A
C344        N345   1.428       .  S
N345        O349   1.262       .  A
N345        O350   1.262       .  A
N348        O352   1.262       .  A
N348        O351   1.262       .  A
C353        C354   1.407       .  A
C353        C358   1.408       .  A
C353        H360   1.087       .  S
C354        C355   1.414       .  A
C355        C356   1.393       .  A
C355        N362   1.429       .  S
C356        C357   1.401       .  A
C356        H361   1.088       .  S
C357        C358   1.414       .  A
C358        N359   1.428       .  S
N359        O363   1.262       .  A
N359        O364   1.262       .  A
N362        O366   1.262       .  A
N362        O365   1.262       .  A
C367        C368   1.404       .  A
C367        C372   1.391   1_545  A
C367        H374   1.086       .  S
C368        C369   1.417       .  A
C369        C370   1.411   1_545  A
C369        N376   1.428       .  S
C370        C371   1.406       .  A
C370        H375   1.086       .  S
C371        C372   1.411       .  A
C372        N373   1.430       .  S
N373        O377   1.262       .  A
N373        O378   1.262       .  A
N376        O380   1.262       .  A
N376        O379   1.262       .  A
C381        C382   1.403   1_545  A
C381        H388   1.085       .  S
C382        C383   1.411       .  A
C383        N390   1.430       .  S
C384        C385   1.405       .  A
C384        H389   1.085       .  S
C385        C386   1.416       .  A
C386        N387   1.427       .  S
N387        O392   1.262       .  A
N390        O393   1.262   1_556  A
C395        C396   1.404   1_455  A
C395        C400   1.393       .  A
C395        H402   1.083       .  S
C396        C397   1.415       .  A
C397        C398   1.405       .  A
C397        N404   1.428       .  S
C398        C399   1.403   1_655  A
C398        H403   1.083       .  S
C399        C400   1.408       .  A
C400        N401   1.428       .  S
N401        O405   1.262       .  A
N401        O406   1.261       .  A
N404        O408   1.262       .  A
N404        O407   1.262       .  A
C409        C410   1.402       .  A
C409        C414   1.396       .  A
C409        H416   1.085       .  S
C410        C411   1.412       .  A
C411        C412   1.406   1_655  A
C411        N418   1.428       .  S
C412        C413   1.408       .  A
C412        H417   1.084       .  S
C413        C414   1.416   1_455  A
C414        N415   1.429       .  S
N415        O419   1.262       .  A
N415        O420   1.262       .  A
N418        O422   1.262       .  A
N418        O421   1.262   1_655  A
C423        C424   1.407       .  A
C423        C428   1.406       .  A
C423        H430   1.086       .  S
C424        C425   1.417       .  A
C425        C426   1.394       .  A
C425        N432   1.429       .  S
C426        C427   1.400       .  A
C426        H431   1.087   1_556  S
C427        C428   1.412       .  A
C428        N429   1.428       .  S
N429        O433   1.262       .  A
N429        O434   1.261       .  A
N432        O436   1.262       .  A
N432        O435   1.262       .  A
C437        C438   1.404       .  A
C437        C442   1.392       .  A
C437        H444   1.087       .  S
C438        C439   1.417       .  A
C439        C440   1.408       .  A
C439        N446   1.429       .  S
C440        C441   1.405       .  A
C440        H445   1.087       .  S
C441        C442   1.408       .  A
C442        N443   1.429       .  S
N443        O447   1.262       .  A
N446        O450   1.262       .  A
N446        O449   1.262       .  A
C451        C452   1.401       .  A
C451        C456   1.396       .  A
C451        H458   1.083       .  S
C452        C453   1.413       .  A
C453        C454   1.408       .  A
C453        N460   1.428       .  S
C454        C455   1.408       .  A
C454        H459   1.083       .  S
C455        C456   1.415       .  A
C456        N457   1.429       .  S
N457        O461   1.262       .  A
N457        O462   1.262       .  A
N460        O464   1.262       .  A
N460        O463   1.262       .  A
C465        C466   1.403       .  A
C465        C470   1.392       .  A
C465        H472   1.086       .  S
C466        C467   1.415       .  A
C467        C468   1.410       .  A
C467        N474   1.428       .  S
C468        C469   1.407       .  A
C468        H473   1.086       .  S
C469        C470   1.413       .  A
C470        N471   1.430       .  S
N471        O475   1.262       .  A
N471        O476   1.262       .  A
N474        O478   1.262       .  A
N474        O477   1.262       .  A
C479        C480   1.406       .  A
C479        C484   1.399       .  A
C479        H486   1.085       .  S
C480        C481   1.413       .  A
C481        C482   1.402       .  A
C481        N488   1.428       .  S
C482        C483   1.404       .  A
C482        H487   1.085       .  S
C483        C484   1.409       .  A
C484        N485   1.429       .  S
N485        O489   1.262       .  A
N485        O490   1.262       .  A
N488        O492   1.262       .  A
N488        O491   1.262       .  A
