geometry optimzed in LAMMPS
_audit_creation_date              2020-12-01 
_audit_creation_method            'lammps2cif' 
_symmetry_space_group_name_H-M    'P1' 
_symmetry_Int_Tables_number       1 
_symmetry_cell_setting            triclinic 
loop_ 
_symmetry_equiv_pos_as_xyz 
  x,y,z 
_cell_length_a                    56.3188892 
_cell_length_b                    56.35054283640433 
_cell_length_c                    56.357193222332334 
_cell_angle_alpha                 89.7752840483077 
_cell_angle_beta                  90.09312490867268 
_cell_angle_gamma                 90.03838593447958 
loop_ 
_atom_site_label 
_atom_site_type_symbol 
_atom_site_fract_x 
_atom_site_fract_y 
_atom_site_fract_z 
_atom_site_charge 
O1          O  0.60495464  0.25308461  0.85687365    -0.73400
O2          O  0.61379044  0.27959906  0.92242216    -0.74400
O3          O  0.57699946  0.28154953  0.88766236    -0.63000
O4          O  0.64166970  0.25122965  0.89149199    -0.71400
O5          O  0.65778910  0.28453130  0.87781654    -0.71000
O6          O  0.59332185  0.31327154  0.87082468    -0.62200
O7          O  0.62866288  0.31267088  0.90703435    -0.74700
O8          O  0.62234672  0.28501689  0.84172951    -0.73500
Cu9        Cu  0.60876137  0.26523240  0.89019682     1.04600
Cu10       Cu  0.62606153  0.30000196  0.87385394     1.04300
C11         C  0.61242297  0.26480402  0.83889872     0.92800
C12         C  0.62270692  0.30028972  0.92512804     0.91900
C13         C  0.57498563  0.30197935  0.87791601     0.84100
C14         C  0.65995393  0.26331056  0.88553304     0.90300
O15         O  0.26852718  0.63244907  0.89481566    -0.73400
O16         O  0.29586882  0.56700440  0.88721972    -0.74400
O17         O  0.29714333  0.60203662  0.92322105    -0.63000
O18         O  0.26674175  0.59745549  0.85904488    -0.71400
O19         O  0.29974277  0.61118057  0.84238232    -0.71000
O20         O  0.32902020  0.61869313  0.90715024    -0.62200
O21         O  0.32867829  0.58255444  0.87199798    -0.74700
O22         O  0.30042823  0.64749441  0.87732760    -0.73500
Cu23       Cu  0.28097089  0.59915607  0.89166117     1.04600
Cu24       Cu  0.31561085  0.61550135  0.87416027     1.04300
C25         C  0.28012443  0.65035206  0.88698424     0.92800
C26         C  0.31663829  0.56443270  0.87842976     0.91900
C27         C  0.31762469  0.61152986  0.92544090     0.84100
C28         C  0.27846341  0.60345911  0.84060339     0.90300
O29         O  0.37228583  0.39749673  0.80868979    -0.73400
O30         O  0.37845716  0.33238821  0.78101396    -0.74400
O31         O  0.34237305  0.36766520  0.78144797    -0.63000
O32         O  0.40831602  0.36202511  0.80898728    -0.71400
O33         O  0.39279671  0.34571899  0.84133461    -0.71000
O34         O  0.32763684  0.35239642  0.81461876    -0.62200
O35         O  0.36289094  0.31662138  0.81355631    -0.74700
O36         O  0.35766064  0.38197066  0.84178730    -0.73500
Cu37       Cu  0.37592219  0.36546379  0.79389088     1.04600
Cu38       Cu  0.35976978  0.34868759  0.82897678     1.04300
C39         C  0.36375719  0.40011434  0.82949764     0.92800
C40         C  0.37152893  0.31419982  0.79271941     0.91900
C41         C  0.32455689  0.36090331  0.79382910     0.84100
C42         C  0.41086839  0.35249125  0.82948257     0.90300
O43         O  0.63027441  0.58097903  0.17230350    -0.73400
O44         O  0.62235491  0.64627706  0.19884893    -0.74400
O45         O  0.65845359  0.61164439  0.19983014    -0.63000
O46         O  0.59351213  0.61578641  0.17101463    -0.71400
O47         O  0.57799380  0.60105845  0.20407002    -0.71000
O48         O  0.64320542  0.59553344  0.23237513    -0.62200
O49         O  0.60747353  0.63081341  0.23187490    -0.74700
O50         O  0.61369934  0.56555131  0.20460111    -0.73500
Cu51       Cu  0.62660742  0.61417427  0.18431513     1.04600
Cu52       Cu  0.60999901  0.59767660  0.21934611     1.04300
C53         C  0.62358322  0.56296673  0.18439631     0.92800
C54         C  0.61410929  0.64886107  0.21978875     0.91900
C55         C  0.66116069  0.60295120  0.22062421     0.84100
C56         C  0.57539429  0.60945555  0.18312396     0.90300
O57         O  0.65841355  0.37871751  0.14526478    -0.73400
O58         O  0.68642833  0.31382490  0.13587779    -0.74400
O59         O  0.68754746  0.34822082  0.17272607    -0.63000
O60         O  0.65740732  0.34399823  0.10816218    -0.71400
O61         O  0.69009288  0.35926995  0.09240117    -0.71000
O62         O  0.71923151  0.36537477  0.15683614    -0.62200
O63         O  0.71920461  0.33019246  0.12131954    -0.74700
O64         O  0.69010669  0.39469978  0.12816683    -0.73500
Cu65       Cu  0.67126213  0.34566528  0.14105757     1.04600
Cu66       Cu  0.70570057  0.36298942  0.12409842     1.04300
C67         C  0.67000567  0.39699794  0.13837936     0.92800
C68         C  0.70734161  0.31181214  0.12734044     0.91900
C69         C  0.70816096  0.35749169  0.17498709     0.84100
C70         C  0.66939265  0.35030834  0.08994218     0.90300
O71         O  0.35562343  0.64733341  0.10927366    -0.73400
O72         O  0.36417299  0.67422227  0.17443997    -0.74400
O73         O  0.32740687  0.67485176  0.13987515    -0.63000
O74         O  0.39267354  0.64666790  0.14373392    -0.71400
O75         O  0.40803294  0.67994506  0.12929530    -0.71000
O76         O  0.34245795  0.70712576  0.12301327    -0.62200
O77         O  0.37790040  0.70770077  0.15877369    -0.74700
O78         O  0.37241353  0.67939657  0.09356665    -0.73500
Cu79       Cu  0.35949427  0.65961488  0.14236728     1.04600
Cu80       Cu  0.37576824  0.69468934  0.12561341     1.04300
C81         C  0.36255773  0.65910873  0.09115637     0.92800
C82         C  0.37200577  0.69535154  0.17691405     0.91900
C83         C  0.32455613  0.69536283  0.13054654     0.84100
C84         C  0.41073027  0.65891401  0.13743852     0.90300
O85         O  0.61553185  0.17708156  0.59216878    -0.73400
O86         O  0.60679788  0.20472315  0.65711279    -0.74400
O87         O  0.64326118  0.20595161  0.62269553    -0.63000
O88         O  0.57884935  0.17594320  0.62661023    -0.71400
O89         O  0.59475642  0.14433241  0.64407138    -0.71000
O90         O  0.65943025  0.17306274  0.63731984    -0.62200
O91         O  0.62386636  0.17294941  0.67298181    -0.74700
O92         O  0.63042593  0.14441666  0.60842963    -0.73500
Cu93       Cu  0.61052606  0.19203834  0.62404897     1.04600
Cu94       Cu  0.62765319  0.15754592  0.64122189     1.04300
C95         C  0.62448522  0.15635785  0.59004850     0.92800
C96         C  0.61415360  0.19329158  0.67533638     0.91900
C97         C  0.66151506  0.19415986  0.62921072     0.84100
C98         C  0.57658689  0.15563956  0.63651479     0.90300
O99         O  0.69324087  0.09784366  0.42351439    -0.73400
O100        O  0.71888633  0.09311857  0.35747119    -0.74400
O101        O  0.72028133  0.12787019  0.39323501    -0.63000
O102        O  0.69191810  0.06283527  0.38730334    -0.71400
O103        O  0.65888642  0.07854519  0.37266265    -0.71000
O104        O  0.68660733  0.14359773  0.38005904    -0.62200
O105        O  0.68586198  0.10932851  0.34335501    -0.74700
O106        O  0.65970507  0.11280431  0.40922078    -0.73500
Cu107      Cu  0.70720113  0.09481123  0.39092701     1.04600
Cu108      Cu  0.67158526  0.11157410  0.37586399     1.04300
C109        C  0.67244529  0.10625907  0.42683168     0.92800
C110        C  0.70662499  0.10085399  0.33999042     0.91900
C111        C  0.70792479  0.14601606  0.38747327     0.84100
C112        C  0.67107542  0.06036375  0.37863851     0.90300
O113        O  0.37201842  0.06704185  0.70527239    -0.73400
O114        O  0.37990028  0.13270646  0.73192845    -0.74400
O115        O  0.34364014  0.09763351  0.73347419    -0.63000
O116        O  0.40830733  0.10214177  0.70370910    -0.71400
O117        O  0.39241035  0.11852676  0.67153591    -0.71000
O118        O  0.32772279  0.11179793  0.70028064    -0.62200
O119        O  0.36324228  0.14790275  0.69961027    -0.74700
O120        O  0.35697157  0.08244252  0.67227014    -0.73500
Cu121      Cu  0.37655921  0.09933233  0.71972638     1.04600
Cu122      Cu  0.35954684  0.11567749  0.68479499     1.04300
C123        C  0.36309483  0.06434253  0.68457730     0.92800
C124        C  0.37273856  0.15071055  0.72003199     0.91900
C125        C  0.32541016  0.10377122  0.72138655     0.84100
C126        C  0.41060135  0.11143939  0.68311094     0.90300
O127        O  0.29763162  0.85378274  0.67364599    -0.73400
O128        O  0.32537318  0.84476808  0.60896511    -0.74400
O129        O  0.32597684  0.88182148  0.64315259    -0.63000
O130        O  0.29704455  0.81688428  0.63960147    -0.71400
O131        O  0.26501652  0.83184523  0.62220353    -0.71000
O132        O  0.29289043  0.89720389  0.62830870    -0.62200
O133        O  0.29346677  0.86146462  0.59288741    -0.74700
O134        O  0.26433950  0.86738792  0.65742069    -0.73500
Cu135      Cu  0.31266035  0.84880838  0.64186622     1.04600
Cu136      Cu  0.27782002  0.86505895  0.62460229     1.04300
C137        C  0.27645916  0.86160652  0.67572491     0.92800
C138        C  0.31377792  0.85163653  0.59069298     0.91900
C139        C  0.31379193  0.89989054  0.63679536     0.84100
C140        C  0.27653549  0.81401527  0.63029136     0.90300
O141        O  0.57572050  0.85985642  0.30736255    -0.73400
O142        O  0.64118463  0.86477431  0.27982415    -0.74400
O143        O  0.60523181  0.82973620  0.28005800    -0.63000
O144        O  0.61192915  0.89508402  0.30728780    -0.71400
O145        O  0.62686235  0.87949053  0.34026588    -0.71000
O146        O  0.62001017  0.81445239  0.31325280    -0.62200
O147        O  0.65596611  0.84928547  0.31291566    -0.74700
O148        O  0.59067481  0.84457330  0.34047338    -0.73500
Cu149      Cu  0.60793292  0.86294811  0.29250528     1.04600
Cu150      Cu  0.62385504  0.84646537  0.32788856     1.04300
C151        C  0.57279173  0.85119923  0.32814980     0.92800
C152        C  0.65895405  0.85751039  0.29196429     0.91900
C153        C  0.61184085  0.81175477  0.29228553     0.84100
C154        C  0.62078591  0.89761824  0.32802673     0.90300
O155        O  0.40622783  0.78366717  0.38698186    -0.73400
O156        O  0.34191655  0.75470813  0.39614409    -0.74400
O157        O  0.37630163  0.75400826  0.35957243    -0.63000
O158        O  0.37172833  0.78440559  0.42366327    -0.71400
O159        O  0.35407607  0.81568335  0.40733663    -0.71000
O160        O  0.36161635  0.78672001  0.34306795    -0.62200
O161        O  0.32587252  0.78612957  0.37857668    -0.74700
O162        O  0.39000470  0.81617510  0.37172157    -0.73500
Cu163      Cu  0.37466949  0.76812160  0.39219501     1.04600
Cu164      Cu  0.35732768  0.80231235  0.37463861     1.04300
C165        C  0.40838885  0.80431273  0.37775655     0.92800
C166        C  0.32365098  0.76582229  0.38853099     0.91900
C167        C  0.36996797  0.76574958  0.34118900     0.84100
C168        C  0.36150226  0.80452946  0.42567181     0.90300
O169        O  0.13006635  0.81722755  0.10936147    -0.73400
O170        O  0.12306964  0.78830177  0.17397199    -0.74400
O171        O  0.15869575  0.78820713  0.13844335    -0.63000
O172        O  0.09420508  0.81742495  0.14497395    -0.71400
O173        O  0.07804156  0.78508265  0.12952150    -0.71000
O174        O  0.14268255  0.75620709  0.12214363    -0.62200
O175        O  0.10739884  0.75592683  0.15809257    -0.74700
O176        O  0.11313739  0.78543012  0.09349328    -0.73500
Cu177      Cu  0.12704767  0.80392075  0.14221722     1.04600
Cu178      Cu  0.10973460  0.76956180  0.12521899     1.04300
C179        C  0.12290111  0.80578114  0.09118856     0.92800
C180        C  0.11416319  0.76755970  0.17631701     0.91900
C181        C  0.16095721  0.76764882  0.12923212     0.84100
C182        C  0.07584321  0.80568618  0.13866143     0.90300
O183        O  0.90803611  0.85958598  0.20931267    -0.73400
O184        O  0.84179692  0.86344136  0.23564462    -0.74400
O185        O  0.87830833  0.82905244  0.23565130    -0.63000
O186        O  0.87148296  0.89451270  0.20959453    -0.71400
O187        O  0.85735740  0.88004219  0.17585341    -0.71000
O188        O  0.86397056  0.81414601  0.20219567    -0.62200
O189        O  0.82760567  0.84885067  0.20200891    -0.74700
O190        O  0.89357173  0.84495194  0.17580708    -0.73500
Cu191      Cu  0.87542205  0.86220193  0.22368120     1.04600
Cu192      Cu  0.86014097  0.84651847  0.18777107     1.04300
C193        C  0.91128890  0.85128774  0.18847532     0.92800
C194        C  0.82421358  0.85657369  0.22301687     0.91900
C195        C  0.87228779  0.81121695  0.22312208     0.84100
C196        C  0.86307352  0.89774904  0.18878267     0.90300
O197        O  0.15868217  0.84355016  0.90777606    -0.73400
O198        O  0.18508086  0.85296651  0.84252296    -0.74400
O199        O  0.18696471  0.81614778  0.87718551    -0.63000
O200        O  0.15694121  0.88060344  0.87325952    -0.71400
O201        O  0.18996491  0.89647112  0.88767626    -0.71000
O202        O  0.21902574  0.83188236  0.89375323    -0.62200
O203        O  0.21830370  0.86739019  0.85808557    -0.74700
O204        O  0.19051324  0.86086688  0.92332147    -0.73500
Cu205      Cu  0.17076036  0.84778716  0.87467058     1.04600
Cu206      Cu  0.20556702  0.86474892  0.89126701     1.04300
C207        C  0.17041274  0.85063771  0.92581204     0.92800
C208        C  0.20600258  0.86134711  0.84000948     0.91900
C209        C  0.20762951  0.81375422  0.88631947     0.84100
C210        C  0.16896299  0.89883218  0.87939378     0.90300
O211        O  0.10645901  0.13091954  0.78091495    -0.73400
O212        O  0.11380148  0.06562967  0.80809957    -0.74400
O213        O  0.07775035  0.10094920  0.80894723    -0.63000
O214        O  0.14248363  0.09616120  0.77980195    -0.71400
O215        O  0.15833330  0.11022854  0.81300012    -0.71000
O216        O  0.09340085  0.11659696  0.84145460    -0.62200
O217        O  0.12884487  0.08086499  0.84108811    -0.74700
O218        O  0.12282643  0.14609679  0.81330060    -0.73500
Cu219      Cu  0.10955907  0.09782263  0.79334170     1.04600
Cu220      Cu  0.12640210  0.11395375  0.82836336     1.04300
C221        C  0.11355255  0.14885872  0.79275504     0.92800
C222        C  0.12253299  0.06287653  0.82888010     0.91900
C223        C  0.07524195  0.11003491  0.82953715     0.84100
C224        C  0.16063656  0.10246085  0.79185742     0.90300
O225        O  0.79412911  0.09953425  0.09309827    -0.73400
O226        O  0.76651641  0.09491339  0.15861866    -0.74400
O227        O  0.76602221  0.12948917  0.12217300    -0.63000
O228        O  0.79448787  0.06461045  0.12998875    -0.71400
O229        O  0.82688550  0.08060704  0.14560668    -0.71000
O230        O  0.79931524  0.14554381  0.13589005    -0.62200
O231        O  0.79896967  0.11169926  0.17327893    -0.74700
O232        O  0.82712652  0.11474394  0.10825281    -0.73500
Cu233      Cu  0.77917977  0.09650886  0.12539654     1.04600
Cu234      Cu  0.81423164  0.11364079  0.14124264     1.04300
C235        C  0.81489674  0.10829735  0.09029477     0.92800
C236        C  0.77826732  0.10291083  0.17628936     0.91900
C237        C  0.77823859  0.14775136  0.12777275     0.84100
C238        C  0.81495395  0.06229382  0.13956710     0.90300
O239        O  0.87886029  0.20684307  0.85846123    -0.73400
O240        O  0.87264676  0.17922747  0.92388688    -0.74400
O241        O  0.90863981  0.17956276  0.88831448    -0.63000
O242        O  0.84298493  0.20681615  0.89343877    -0.71400
O243        O  0.82791054  0.17325895  0.87939652    -0.71000
O244        O  0.89347378  0.14683847  0.87266242    -0.62200
O245        O  0.85825523  0.14600556  0.90855781    -0.74700
O246        O  0.86308464  0.17406036  0.84352189    -0.73500
Cu247      Cu  0.87633401  0.19424560  0.89164269     1.04600
Cu248      Cu  0.86019882  0.15888527  0.87555283     1.04300
C249        C  0.87178141  0.19481504  0.84062339     0.92800
C250        C  0.86428255  0.15828222  0.92658708     0.91900
C251        C  0.91146114  0.15908384  0.87906338     0.84100
C252        C  0.82511328  0.19435045  0.88710948     0.90300
O253        O  0.18959006  0.56665123  0.62961460    -0.73400
O254        O  0.21715786  0.63194805  0.62340592    -0.74400
O255        O  0.21751369  0.59637371  0.65907009    -0.63000
O256        O  0.18910402  0.60232603  0.59387762    -0.71400
O257        O  0.15687121  0.61866715  0.60946088    -0.71000
O258        O  0.18422275  0.61040529  0.67463220    -0.62200
O259        O  0.18471001  0.64697540  0.63974402    -0.74700
O260        O  0.15642153  0.58184094  0.64426721    -0.73500
Cu261      Cu  0.20446416  0.59875470  0.62591354     1.04600
Cu262      Cu  0.16939896  0.61496338  0.64253730     1.04300
C263        C  0.16875460  0.56385839  0.63813225     0.92800
C264        C  0.20533094  0.64982046  0.63072876     0.91900
C265        C  0.20527896  0.60235117  0.67717633     0.84100
C266        C  0.16871339  0.61197599  0.59138353     0.90300
O267        O  0.15753631  0.35022656  0.70227651    -0.73400
O268        O  0.09277211  0.34589637  0.67310808    -0.74400
O269        O  0.12891331  0.38096710  0.67458375    -0.63000
O270        O  0.12132145  0.31526353  0.70076997    -0.71400
O271        O  0.10552391  0.33018867  0.73348856    -0.71000
O272        O  0.11338552  0.39587468  0.70743620    -0.62200
O273        O  0.07709245  0.36098027  0.70580883    -0.74700
O274        O  0.14186486  0.36492017  0.73515348    -0.73500
Cu275      Cu  0.12568108  0.34760405  0.68652828     1.04600
Cu276      Cu  0.10890962  0.36353030  0.72159568     1.04300
C277        C  0.15999193  0.35820737  0.72333686     0.92800
C278        C  0.07462681  0.35246254  0.68496345     0.91900
C279        C  0.12250583  0.39884224  0.68689506     0.84100
C280        C  0.11215549  0.31231988  0.72129784     0.90300
O281        O  0.12890831  0.64546772  0.40740629    -0.73400
O282        O  0.12247515  0.67371404  0.34235675    -0.74400
O283        O  0.15776070  0.67396664  0.37843637    -0.63000
O284        O  0.09342401  0.64475254  0.37145657    -0.71400
O285        O  0.07717929  0.67717170  0.38657431    -0.71000
O286        O  0.14177745  0.70623666  0.39414442    -0.62200
O287        O  0.10658023  0.70612250  0.35783944    -0.74700
O288        O  0.11205674  0.67747685  0.42285633    -0.73500
Cu289      Cu  0.12616653  0.65835578  0.37436462     1.04600
Cu290      Cu  0.10879825  0.69287827  0.39088885     1.04300
C291        C  0.12179603  0.65716109  0.42541750     0.92800
C292        C  0.11355112  0.69442062  0.33976676     0.91900
C293        C  0.16006825  0.69448924  0.38769168     0.84100
C294        C  0.07505562  0.65642594  0.37772123     0.90300
O295        O  0.87141936  0.28266298  0.59412448    -0.73400
O296        O  0.87774222  0.25572132  0.65949114    -0.74400
O297        O  0.84243058  0.25501289  0.62417052    -0.63000
O298        O  0.90718070  0.28341505  0.62974367    -0.71400
O299        O  0.89172884  0.31615530  0.64499006    -0.71000
O300        O  0.82652852  0.28830102  0.63790898    -0.62200
O301        O  0.86158778  0.28828904  0.67439082    -0.74700
O302        O  0.85634671  0.31584370  0.60881420    -0.73500
Cu303      Cu  0.87529498  0.26812859  0.62634595     1.04600
Cu304      Cu  0.85855436  0.30334455  0.64206756     1.04300
C305        C  0.86238073  0.30323755  0.59102206     0.92800
C306        C  0.87038688  0.26755762  0.67729598     0.91900
C307        C  0.82427926  0.26720548  0.62999690     0.84100
C308        C  0.90981497  0.30410893  0.63854762     0.90300
O309        O  0.85664482  0.57965435  0.34076242    -0.73400
O310        O  0.86491656  0.64466704  0.31344185    -0.74400
O311        O  0.82829289  0.61032900  0.31282436    -0.63000
O312        O  0.89326587  0.61417674  0.34133023    -0.71400
O313        O  0.90854667  0.59868281  0.30863580    -0.71000
O314        O  0.84336720  0.59491562  0.27999921    -0.62200
O315        O  0.88015471  0.62929554  0.28066393    -0.74700
O316        O  0.87182169  0.56404920  0.30807646    -0.73500
Cu317      Cu  0.86026346  0.61271294  0.32822017     1.04600
Cu318      Cu  0.87651892  0.59615031  0.29320738     1.04300
C319        C  0.86277855  0.56150904  0.32872472     0.92800
C320        C  0.87386052  0.64733398  0.29278876     0.91900
C321        C  0.82548158  0.60211122  0.29191059     0.84100
C322        C  0.91125513  0.60735730  0.32938925     0.90300
O323        O  0.79329679  0.35724950  0.42179726    -0.73400
O324        O  0.76854777  0.36536862  0.35564123    -0.74400
O325        O  0.76662458  0.32877116  0.39006784    -0.63000
O326        O  0.79500325  0.39399447  0.38705092    -0.71400
O327        O  0.82827055  0.37904492  0.37239163    -0.71000
O328        O  0.80037618  0.31350100  0.37677457    -0.62200
O329        O  0.80172234  0.34983259  0.34136760    -0.74700
O330        O  0.82692561  0.34270884  0.40753130    -0.73500
Cu331      Cu  0.77974347  0.36188990  0.38917018     1.04600
Cu332      Cu  0.81550974  0.34576462  0.37402958     1.04300
C333        C  0.81396017  0.34848301  0.42516471     0.92800
C334        C  0.78114868  0.35881622  0.33801479     0.91900
C335        C  0.77906662  0.31081739  0.38410046     0.84100
C336        C  0.81590577  0.39693933  0.37874581     0.90300
C337        C  0.84255380  0.51176939  0.36929418    -0.11300
C338        C  0.84859356  0.49154588  0.35609994     0.05800
C339        C  0.86048952  0.49455235  0.33437176    -0.10100
C340        C  0.86559988  0.51725172  0.32571672    -0.11700
C341        C  0.85890866  0.53745967  0.33859388    -0.01500
C342        C  0.84764697  0.53446150  0.36063806    -0.10600
C343        C  0.84130924  0.46750486  0.36422077     0.05900
H344        H  0.86512503  0.47936108  0.32360672     0.07800
H345        H  0.87432994  0.51896290  0.30868830     0.11200
H346        H  0.84236745  0.54968140  0.37106442     0.11500
H347        H  0.83370152  0.51005810  0.38625573     0.07800
C348        C  0.85612121  0.44777473  0.36062994    -0.11300
C349        C  0.84823755  0.42489366  0.36619230    -0.10600
C350        C  0.82538640  0.42124823  0.37551322    -0.01500
C351        C  0.81097973  0.44106188  0.38006157    -0.11700
C352        C  0.81882776  0.46390876  0.37443167    -0.10100
H353        H  0.87370166  0.44999464  0.35318470     0.07800
H354        H  0.85983564  0.41000509  0.36262000     0.11500
H355        H  0.79326712  0.43887722  0.38720091     0.11200
H356        H  0.80684575  0.47867440  0.37718276     0.07800
C357        C  0.85691693  0.30478919  0.52419974    -0.11300
C358        C  0.84568638  0.32672577  0.52032825     0.05800
C359        C  0.84101813  0.34142147  0.53986435    -0.10100
C360        C  0.84706731  0.33412448  0.56281295    -0.11700
C361        C  0.85793321  0.31199709  0.56667743    -0.01500
C362        C  0.86300846  0.29752610  0.54709642    -0.10600
C363        C  0.83821518  0.33377596  0.49606107     0.05900
H364        H  0.83262661  0.35854133  0.53741237     0.07800
H365        H  0.84286344  0.34565113  0.57755552     0.11200
H366        H  0.87117404  0.28028654  0.54948736     0.11500
H367        H  0.86038795  0.29287366  0.50957361     0.07800
C368        C  0.85268429  0.32869053  0.47644343    -0.11300
C369        C  0.84500939  0.33392436  0.45345762    -0.10600
C370        C  0.82271015  0.34442065  0.44957791    -0.01500
C371        C  0.80847046  0.35004470  0.46921313    -0.11700
C372        C  0.81613979  0.34476851  0.49221434    -0.10100
H373        H  0.86994084  0.32055624  0.47885822     0.07800
H374        H  0.85643387  0.32942717  0.43870556     0.11500
H375        H  0.79117082  0.35809164  0.46680054     0.11200
H376        H  0.80444998  0.34863950  0.50693990     0.07800
C377        C  0.00829051  0.65096958  0.37424842    -0.11300
C378        C  0.00539655  0.62858246  0.36372719     0.05800
C379        C  0.02564111  0.61476257  0.35915201    -0.10100
C380        C  0.04830603  0.62349679  0.36428121    -0.11700
C381        C  0.05115559  0.64620742  0.37412840    -0.01500
C382        C  0.03088478  0.65964382  0.37944765    -0.10600
C383        C  0.98144425  0.62054856  0.35623107     0.05900
H384        H  0.02396979  0.59730078  0.35135254     0.07800
H385        H  0.06359928  0.61264787  0.36010987     0.11200
H386        H  0.03247146  0.67721516  0.38701847     0.11500
H387        H  0.99311557  0.66224474  0.37765595     0.07800
C388        C  0.96139754  0.62572024  0.37009793    -0.11300
C389        C  0.93861158  0.62070784  0.36172056    -0.10600
C390        C  0.93537358  0.61030707  0.33932877    -0.01500
C391        C  0.95543798  0.60413320  0.32593098    -0.11700
C392        C  0.97822984  0.60922415  0.33427897    -0.10100
H393        H  0.96330651  0.63405922  0.38728205     0.07800
H394        H  0.92351261  0.62554416  0.37255167     0.11500
H395        H  0.95352977  0.59607410  0.30861133     0.11200
H396        H  0.99327556  0.60523646  0.32303528     0.07800
C397        C  0.02450617  0.33180060  0.64532234    -0.11300
C398        C  0.00441524  0.33877958  0.65833632     0.05800
C399        C  0.00772641  0.35203505  0.67917544    -0.10100
C400        C  0.03054256  0.35729018  0.68733115    -0.11700
C401        C  0.05058501  0.34934448  0.67488940    -0.01500
C402        C  0.04733260  0.33697998  0.65353053    -0.10600
C403        C  0.98024767  0.33086510  0.65122505     0.05900
H404        H  0.99270954  0.35747864  0.68982436     0.07800
H405        H  0.03246388  0.36693204  0.70381261     0.11200
H406        H  0.06243059  0.33069847  0.64347085     0.11500
H407        H  0.02261484  0.32197232  0.62894699     0.07800
C408        C  0.96030870  0.34536388  0.65507902    -0.11300
C409        C  0.93742258  0.33690080  0.65051640    -0.10600
C410        C  0.93399291  0.31382803  0.64179445    -0.01500
C411        C  0.95393821  0.29965451  0.63713048    -0.11700
C412        C  0.97676683  0.30802402  0.64187681    -0.10100
H413        H  0.96235973  0.36320601  0.66186853     0.07800
H414        H  0.92240737  0.34831589  0.65413806     0.11500
H415        H  0.95190673  0.28176861  0.63044357     0.11200
H416        H  0.99162828  0.29618678  0.63904927     0.07800
C417        C  0.15641417  0.60552571  0.52579782    -0.11300
C418        C  0.14304029  0.62611063  0.52092293     0.05800
C419        C  0.13726921  0.64124718  0.53987846    -0.10100
C420        C  0.14494501  0.63613911  0.56290833    -0.11700
C421        C  0.15905955  0.61612506  0.56742954    -0.01500
C422        C  0.16465216  0.60080525  0.54873207    -0.10600
C423        C  0.13630461  0.63246002  0.49609702     0.05900
H424        H  0.12749849  0.65752671  0.53690832     0.07800
H425        H  0.14063151  0.64835745  0.57703872     0.11200
H426        H  0.17534613  0.58512645  0.55188098     0.11500
H427        H  0.16071381  0.59307169  0.51189232     0.07800
C428        C  0.15123714  0.62637099  0.47705735    -0.11300
C429        C  0.14587058  0.63358026  0.45396393    -0.10600
C430        C  0.12579981  0.64756849  0.44940965    -0.01500
C431        C  0.11060840  0.65344817  0.46817333    -0.11700
C432        C  0.11560943  0.64567683  0.49123513    -0.10100
H433        H  0.16761181  0.61675433  0.47998860     0.07800
H434        H  0.15801895  0.62909694  0.43979845     0.11500
H435        H  0.09490801  0.66410187  0.46500164     0.11200
H436        H  0.10333417  0.65024585  0.50524291     0.07800
C437        C  0.12517406  0.46585953  0.68295272    -0.11300
C438        C  0.13607360  0.46931640  0.66077951     0.05800
C439        C  0.14122792  0.44942068  0.64674789    -0.10100
C440        C  0.13634815  0.42656330  0.65502928    -0.11700
C441        C  0.12612009  0.42308747  0.67749144    -0.01500
C442        C  0.12022044  0.44299023  0.69121094    -0.10600
C443        C  0.14333425  0.49343610  0.65299114     0.05900
H444        H  0.14925858  0.45151076  0.62942266     0.07800
H445        H  0.14095347  0.41158930  0.64395614     0.11200
H446        H  0.11230138  0.44089755  0.70859256     0.11500
H447        H  0.12124034  0.48079403  0.69433427     0.07800
C448        C  0.12900600  0.51326204  0.65775442    -0.11300
C449        C  0.13689938  0.53613023  0.65219965    -0.10600
C450        C  0.15927418  0.53963982  0.64174383    -0.01500
C451        C  0.17321021  0.51976280  0.63619931    -0.11700
C452        C  0.16535315  0.49693651  0.64180182    -0.10100
H453        H  0.11179280  0.51111503  0.66602893     0.07800
H454        H  0.12569572  0.55108973  0.65660583     0.11500
H455        H  0.19054914  0.52185622  0.62817217     0.11200
H456        H  0.17697673  0.48208455  0.63817634     0.07800
C457        C  0.88431915  0.23746212  0.79011653    -0.11300
C458        C  0.87455829  0.22527793  0.77072639     0.05800
C459        C  0.86464980  0.20268907  0.77432974    -0.10100
C460        C  0.86403564  0.19266846  0.79699883    -0.11700
C461        C  0.87338635  0.20502652  0.81650871    -0.01500
C462        C  0.88378316  0.22741175  0.81279911    -0.10600
C463        C  0.87411763  0.23632228  0.74689057     0.05900
H464        H  0.85682793  0.19302229  0.75968611     0.07800
H465        H  0.85589959  0.17539926  0.79927966     0.11200
H466        H  0.89130977  0.23728267  0.82745480     0.11500
H467        H  0.89234567  0.25476995  0.78770588     0.07800
C468        C  0.86697025  0.26003629  0.74402865    -0.11300
C469        C  0.86578072  0.27025826  0.72143359    -0.10600
C470        C  0.87191602  0.25699323  0.70129797    -0.01500
C471        C  0.87926130  0.23331785  0.70423771    -0.11700
C472        C  0.88026945  0.22306464  0.72679622    -0.10100
H473        H  0.86185372  0.27052905  0.75925035     0.07800
H474        H  0.85999250  0.28850413  0.71973848     0.11500
H475        H  0.88407544  0.22260646  0.68907207     0.11200
H476        H  0.88598952  0.20479832  0.72856541     0.07800
C477        C  0.86078428  0.15347366  0.99350333    -0.11300
C478        C  0.84937062  0.13145493  0.99649661     0.05800
C479        C  0.84457135  0.11761129  0.97637750    -0.10100
C480        C  0.85018169  0.12599493  0.95372435    -0.11700
C481        C  0.86072116  0.14842152  0.95067830    -0.01500
C482        C  0.86641744  0.16185803  0.97083848    -0.10600
C483        C  0.84140081  0.12359915  0.02036995     0.05900
H484        H  0.83619348  0.10038902  0.97812736     0.07800
H485        H  0.84570798  0.11512206  0.93855503     0.11200
H486        H  0.87458218  0.17918378  0.96908628     0.11500
H487        H  0.86453209  0.16468505  0.00861933     0.07800
C488        C  0.85546461  0.12793262  0.04049355    -0.11300
C489        C  0.84713840  0.12222205  0.06312402    -0.10600
C490        C  0.82456164  0.11200625  0.06616732    -0.01500
C491        C  0.81077265  0.10698482  0.04600837    -0.11700
C492        C  0.81909669  0.11274213  0.02335485    -0.10100
H493        H  0.87285963  0.13595337  0.03876655     0.07800
H494        H  0.85823141  0.12628891  0.07828843     0.11500
H495        H  0.79325370  0.09924169  0.04775997     0.11200
H496        H  0.80767341  0.10946595  0.00823631     0.07800
C497        C  0.09915920  0.19868412  0.74991389    -0.11300
C498        C  0.10762195  0.21854496  0.76225461     0.05800
C499        C  0.11750893  0.21546511  0.78494609    -0.10100
C500        C  0.11929097  0.19284262  0.79496253    -0.11700
C501        C  0.11110579  0.17289276  0.78250524    -0.01500
C502        C  0.10081552  0.17607282  0.75996892    -0.10600
C503        C  0.10707539  0.24232969  0.75116661     0.05900
H504        H  0.12440806  0.23050563  0.79468310     0.07800
H505        H  0.12732398  0.19096634  0.81234299     0.11200
H506        H  0.09422351  0.16106569  0.74998079     0.11500
H507        H  0.09128070  0.20067350  0.73247069     0.07800
C508        C  0.11501431  0.24552451  0.72776939    -0.11300
C509        C  0.11628551  0.26824001  0.71787868    -0.10600
C510        C  0.10949967  0.28815410  0.73117525    -0.01500
C511        C  0.10078218  0.28481895  0.75430550    -0.11700
C512        C  0.09967353  0.26212357  0.76423421    -0.10100
H513        H  0.12096866  0.23052381  0.71740342     0.07800
H514        H  0.12298282  0.27022722  0.69997586     0.11500
H515        H  0.09523782  0.29978802  0.76492926     0.11200
H516        H  0.09320872  0.26003226  0.78221746     0.07800
C517        C  0.96143244  0.11940396  0.85847676    -0.11300
C518        C  0.98149777  0.13333562  0.86340716     0.05800
C519        C  0.97848194  0.15531777  0.87468972    -0.10100
C520        C  0.95576200  0.16348180  0.88035810    -0.11700
C521        C  0.93563517  0.14975560  0.87493311    -0.01500
C522        C  0.93875509  0.12749922  0.86421130    -0.10600
C523        C  0.00534611  0.12555790  0.85561522     0.05900
H524        H  0.99364645  0.16655011  0.87841163     0.07800
H525        H  0.95394050  0.18076669  0.88848449     0.11200
H526        H  0.92362313  0.11648098  0.85981031     0.11500
H527        H  0.96328615  0.10229393  0.84998502     0.07800
C528        C  0.02520846  0.12822449  0.87047400    -0.11300
C529        C  0.04789875  0.12239037  0.86233333    -0.10600
C530        C  0.05113537  0.11384436  0.83915616    -0.01500
C531        C  0.03114417  0.11048439  0.82460448    -0.11700
C532        C  0.00850864  0.11629881  0.83274143    -0.10100
H533        H  0.02319240  0.13504425  0.88829665     0.07800
H534        H  0.06295164  0.12503657  0.87402049     0.11500
H535        H  0.03303945  0.10405622  0.80662516     0.11200
H536        H  0.99353815  0.11431679  0.82081182     0.07800
C537        C  0.12886170  0.94883559  0.85908182    -0.11300
C538        C  0.14265526  0.96885913  0.86461133     0.05800
C539        C  0.16418213  0.96570556  0.87684430    -0.10100
C540        C  0.17225751  0.94296500  0.88248866    -0.11700
C541        C  0.15898333  0.92287445  0.87602035    -0.01500
C542        C  0.13692595  0.92606279  0.86475948    -0.10600
C543        C  0.13552973  0.99280022  0.85627146     0.05900
H544        H  0.17531895  0.98076965  0.88114609     0.07800
H545        H  0.18930197  0.94111742  0.89122861     0.11200
H546        H  0.12621920  0.91094179  0.85966393     0.11500
H547        H  0.11202123  0.95077328  0.84997457     0.07800
C548        C  0.12657074  0.99598647  0.83319055    -0.11300
C549        C  0.12176620  0.01871404  0.82449093    -0.10600
C550        C  0.12588258  0.03874533  0.83867382    -0.01500
C551        C  0.13421636  0.03552580  0.86198618    -0.11700
C552        C  0.13898182  0.01278558  0.87069481    -0.10100
H553        H  0.12406645  0.98095202  0.82153003     0.07800
H554        H  0.11542411  0.02061399  0.80643102     0.11500
H555        H  0.13741864  0.05060687  0.87340820     0.11200
H556        H  0.14560013  0.01084058  0.88865075     0.07800
C557        C  0.88742661  0.69765661  0.25026029    -0.11300
C558        C  0.87967520  0.71736869  0.26327951     0.05800
C559        C  0.87103132  0.71400654  0.28638473    -0.10100
C560        C  0.86951392  0.69127389  0.29607506    -0.11700
C561        C  0.87667285  0.67144209  0.28286848    -0.01500
C562        C  0.88598237  0.67487649  0.25998679    -0.10600
C563        C  0.87927683  0.74124904  0.25244241     0.05900
H564        H  0.86469603  0.72890105  0.29668744     0.07800
H565        H  0.86231164  0.68921916  0.31377030     0.11200
H566        H  0.89180637  0.65994498  0.24945170     0.11500
H567        H  0.89440978  0.69987279  0.23248601     0.07800
C568        C  0.88642834  0.76112660  0.26556414    -0.11300
C569        C  0.88433398  0.78385149  0.25593478    -0.10600
C570        C  0.87501316  0.78711692  0.23300285    -0.01500
C571        C  0.86824170  0.76718508  0.21973187    -0.11700
C572        C  0.87040159  0.74444705  0.22935863    -0.10100
H573        H  0.89352540  0.75907517  0.28333519     0.07800
H574        H  0.88983932  0.79886770  0.26655139     0.11500
H575        H  0.86100117  0.76915742  0.20202070     0.11200
H576        H  0.86447106  0.72939729  0.21901273     0.07800
C577        C  0.85399888  0.96416867  0.18821852    -0.11300
C578        C  0.84828884  0.96846170  0.16432737     0.05800
C579        C  0.84868000  0.94948918  0.14823071    -0.10100
C580        C  0.85409298  0.92653890  0.15601245    -0.11700
C581        C  0.85922664  0.92216936  0.18002991    -0.01500
C582        C  0.85944364  0.94126734  0.19598976    -0.10600
C583        C  0.84083151  0.99246018  0.15655687     0.05900
H584        H  0.84459995  0.95240410  0.12966307     0.07800
H585        H  0.85396096  0.91217370  0.14329333     0.11200
H586        H  0.86313631  0.93842029  0.21464886     0.11500
H587        H  0.85350947  0.97841990  0.20106073     0.07800
C588        C  0.82060864  0.99534752  0.14223014    -0.11300
C589        C  0.81248847  0.01802376  0.13627200    -0.10600
C590        C  0.82454280  0.03829184  0.14437137    -0.01500
C591        C  0.84515990  0.03536435  0.15818060    -0.11700
C592        C  0.85315571  0.01267740  0.16430390    -0.10100
H593        H  0.81062024  0.98004883  0.13625479     0.07800
H594        H  0.79653137  0.01967228  0.12565304     0.11500
H595        H  0.85483437  0.05061944  0.16473289     0.11200
H596        H  0.86889992  0.01091643  0.17522896     0.07800
C597        C  0.10162790  0.73831378  0.28999770    -0.11300
C598        C  0.10878307  0.72540256  0.26994741     0.05800
C599        C  0.11685837  0.70199851  0.27303396    -0.10100
C600        C  0.11815520  0.69187847  0.29565810    -0.11700
C601        C  0.11141209  0.70492609  0.31574092    -0.01500
C602        C  0.10292023  0.72818638  0.31264310    -0.10600
C603        C  0.10879510  0.73654929  0.24602100     0.05900
H604        H  0.12281185  0.69168105  0.25800313     0.07800
H605        H  0.12473156  0.67390312  0.29742601     0.11200
H606        H  0.09746753  0.73867745  0.32774961     0.11500
H607        H  0.09501912  0.75627679  0.28817903     0.07800
C608        C  0.10239609  0.72340412  0.22583657    -0.11300
C609        C  0.10385344  0.73352573  0.20320091    -0.10600
C610        C  0.11176585  0.75701102  0.20027033    -0.01500
C611        C  0.11764922  0.77030975  0.22048017    -0.11700
C612        C  0.11617466  0.76020480  0.24308500    -0.10100
H613        H  0.09629113  0.70524487  0.22754232     0.07800
H614        H  0.09903672  0.72286112  0.18798889     0.11500
H615        H  0.12370216  0.78849467  0.21883523     0.11200
H616        H  0.12149128  0.77073569  0.25822533     0.07800
C617        C  0.14135019  0.82004161  0.97771316    -0.11300
C618        C  0.14449974  0.83670324  0.99598696     0.05800
C619        C  0.15561028  0.85846022  0.99062278    -0.10100
C620        C  0.16402833  0.86309009  0.96775293    -0.11700
C621        C  0.16091603  0.84633250  0.94970434    -0.01500
C622        C  0.14924534  0.82493233  0.95475780    -0.10600
C623        C  0.13740770  0.83077481  0.02071202     0.05900
H624        H  0.15794034  0.87188143  0.00412359     0.07800
H625        H  0.17283649  0.87980089  0.96411136     0.11200
H626        H  0.14695663  0.81163786  0.94110787     0.11500
H627        H  0.13341427  0.80288681  0.98124663     0.07800
C628        C  0.11737969  0.81650675  0.02521910    -0.11300
C629        C  0.11226668  0.80883043  0.04824771    -0.10600
C630        C  0.12676536  0.81568863  0.06728696    -0.01500
C631        C  0.14606041  0.83086840  0.06304390    -0.11700
C632        C  0.15146122  0.83816103  0.03998030    -0.10100
H633        H  0.10583414  0.81094545  0.01090024     0.07800
H634        H  0.09712939  0.79731847  0.05114452     0.11500
H635        H  0.15763855  0.83622196  0.07742524     0.11200
H636        H  0.16723810  0.84879389  0.03720007     0.07800
C637        C  0.97839560  0.84721700  0.18552831    -0.11300
C638        C  0.98196274  0.83928717  0.16219071     0.05800
C639        C  0.96220032  0.83668607  0.14717706    -0.10100
C640        C  0.93930620  0.84114056  0.15555762    -0.11700
C641        C  0.93566512  0.84838233  0.17911698    -0.01500
C642        C  0.95549130  0.85171033  0.19391088    -0.10600
C643        C  0.00597219  0.83207939  0.15416221     0.05900
H644        H  0.96443293  0.83088435  0.12902530     0.07800
H645        H  0.92441385  0.83853601  0.14365755     0.11200
H646        H  0.95327850  0.85714666  0.21217839     0.11500
H647        H  0.99325113  0.84906936  0.19761799     0.07800
C648        C  0.02616393  0.84534072  0.16041849    -0.11300
C649        C  0.04888957  0.83720074  0.15468144    -0.10600
C650        C  0.05186420  0.81558743  0.14266412    -0.01500
C651        C  0.03162768  0.80276098  0.13573454    -0.11700
C652        C  0.00895358  0.81093225  0.14139006    -0.10100
H653        H  0.02438047  0.86184162  0.17003092     0.07800
H654        H  0.06413496  0.84753792  0.16020285     0.11500
H655        H  0.03329670  0.78604685  0.12647430     0.11200
H656        H  0.99376211  0.80016722  0.13657271     0.07800
C657        C  0.25726549  0.75722768  0.38392775    -0.11300
C658        C  0.25409130  0.73482063  0.39442365     0.05800
C659        C  0.27401718  0.72268805  0.40337652    -0.10100
C660        C  0.29666348  0.73279912  0.40172210    -0.11700
C661        C  0.29977855  0.75517221  0.39101471    -0.01500
C662        C  0.27980858  0.76729080  0.38225885    -0.10600
C663        C  0.23012712  0.72393308  0.39493115     0.05900
H664        H  0.27207369  0.70544406  0.41167872     0.07800
H665        H  0.31172392  0.72303465  0.40868119     0.11200
H666        H  0.28159146  0.78448647  0.37383052     0.11500
H667        H  0.24233459  0.76679469  0.37643956     0.07800
C668        C  0.20999962  0.73785609  0.39974457    -0.11300
C669        C  0.18721507  0.72823790  0.39779798    -0.10600
C670        C  0.18410811  0.70450912  0.39094288    -0.01500
C671        C  0.20426083  0.69036059  0.38697556    -0.11700
C672        C  0.22703236  0.69995530  0.38900565    -0.10100
H673        H  0.21188149  0.75629704  0.40473426     0.07800
H674        H  0.17204414  0.73951542  0.40120647     0.11500
H675        H  0.20245025  0.67192732  0.38193252     0.11200
H676        H  0.24217912  0.68882943  0.38504895     0.07800
C677        C  0.75738914  0.85009765  0.22853965    -0.11300
C678        C  0.75342422  0.85810698  0.25176853     0.05800
C679        C  0.77286509  0.86581085  0.26536936    -0.10100
C680        C  0.79580588  0.86547062  0.25598934    -0.11700
C681        C  0.79983040  0.85735111  0.23280074    -0.01500
C682        C  0.78035877  0.84967654  0.21916903    -0.10600
C683        C  0.72916409  0.85816807  0.26196067     0.05900
H684        H  0.77029239  0.87231847  0.28324076     0.07800
H685        H  0.81039264  0.87152234  0.26694480     0.11200
H686        H  0.78286355  0.84321155  0.20127632     0.11500
H687        H  0.74277545  0.84378459  0.21776565     0.07800
C688        C  0.70965005  0.86607683  0.24851932    -0.11300
C689        C  0.68683720  0.86616655  0.25830465    -0.10600
C690        C  0.68309943  0.85821607  0.28168529    -0.01500
C691        C  0.70264129  0.85030938  0.29506931    -0.11700
C692        C  0.72540225  0.85030675  0.28532847    -0.10100
H693        H  0.71208289  0.87244315  0.23052557     0.07800
H694        H  0.67214195  0.87234846  0.24752984     0.11500
H695        H  0.70035922  0.84395112  0.31308100     0.11200
H696        H  0.74004960  0.84381450  0.29598629     0.07800
C697        C  0.52219494  0.83383977  0.36876935    -0.11300
C698        C  0.50231052  0.83826478  0.35431099     0.05800
C699        C  0.50575993  0.84854235  0.33182090    -0.10100
C700        C  0.52863093  0.85346415  0.32361993    -0.11700
C701        C  0.54854873  0.84815151  0.33771221    -0.01500
C702        C  0.54506645  0.83868416  0.36054305    -0.10600
C703        C  0.47826646  0.83067619  0.36194563     0.05900
H704        H  0.49083536  0.85190469  0.32013508     0.07800
H705        H  0.53072364  0.86075865  0.30594265     0.11200
H706        H  0.56004767  0.83453882  0.37190522     0.11500
H707        H  0.52008692  0.82629591  0.38634115     0.07800
C708        C  0.47519040  0.80879341  0.37356722    -0.11300
C709        C  0.45253205  0.80061438  0.37925634    -0.10600
C710        C  0.43236673  0.81407816  0.37340730    -0.01500
C711        C  0.43540007  0.83623858  0.36226956    -0.11700
C712        C  0.45813891  0.84446288  0.35660670    -0.10100
H713        H  0.49027372  0.79754563  0.37755862     0.07800
H714        H  0.45081370  0.78342203  0.38773998     0.11500
H715        H  0.42019681  0.84704055  0.35754462     0.11200
H716        H  0.45996647  0.86152501  0.34788278     0.07800
C717        C  0.27015321  0.87086730  0.74166871    -0.11300
C718        C  0.24595146  0.86566591  0.74542284     0.05800
C719        C  0.23183495  0.85987187  0.72557881    -0.10100
C720        C  0.24161861  0.85926842  0.70282577    -0.11700
C721        C  0.26586936  0.86367527  0.69945852    -0.01500
C722        C  0.28006325  0.86944863  0.71903143    -0.10600
C723        C  0.23571343  0.86561604  0.76988894     0.05900
H724        H  0.21331207  0.85516266  0.72753465     0.07800
H725        H  0.23039028  0.85454078  0.68794351     0.11200
H726        H  0.29879751  0.87316972  0.71675977     0.11500
H727        H  0.28159962  0.87614903  0.75615859     0.07800
C728        C  0.25010545  0.86050163  0.78975271    -0.11300
C729        C  0.24053092  0.85991707  0.81257219    -0.10600
C730        C  0.21620497  0.86360511  0.81607198    -0.01500
C731        C  0.20167910  0.86867760  0.79647392    -0.11700
C732        C  0.21138109  0.87008083  0.77369262    -0.10100
H733        H  0.26873171  0.85628435  0.78779227     0.07800
H734        H  0.25202438  0.85571154  0.82743706     0.11500
H735        H  0.18285878  0.87181555  0.79882460     0.11200
H736        H  0.19969878  0.87474873  0.75914187     0.07800
C737        C  0.23380404  0.76348714  0.61783860    -0.11300
C738        C  0.24610739  0.74397177  0.62740078     0.05800
C739        C  0.26851597  0.74765685  0.63771843    -0.10100
C740        C  0.27838535  0.77037510  0.63856216    -0.11700
C741        C  0.26609453  0.78992971  0.62905523    -0.01500
C742        C  0.24370362  0.78623634  0.61863096    -0.10600
C743        C  0.23543382  0.71991170  0.62717646     0.05900
H744        H  0.27823600  0.73301600  0.64555416     0.07800
H745        H  0.29560620  0.77262200  0.64683077     0.11200
H746        H  0.23379587  0.80092110  0.61112061     0.11500
H747        H  0.21658282  0.76112028  0.60959474     0.07800
C748        C  0.21140939  0.71668565  0.63300850    -0.11300
C749        C  0.20160264  0.69393281  0.63395399    -0.10600
C750        C  0.21557688  0.67392538  0.62893935    -0.01500
C751        C  0.23948584  0.67717797  0.62260367    -0.11700
C752        C  0.24933460  0.69993803  0.62181815    -0.10100
H753        H  0.20033413  0.73172748  0.63743257     0.07800
H754        H  0.18310336  0.69201480  0.63879720     0.11500
H755        H  0.25069125  0.66211704  0.61857041     0.11200
H756        H  0.26783219  0.70193471  0.61699030     0.07800
C757        C  0.32443661  0.85642587  0.52467429    -0.11300
C758        C  0.33932852  0.83677990  0.52046326     0.05800
C759        C  0.34678096  0.82308519  0.54009470    -0.10100
C760        C  0.33928002  0.82861066  0.56300829    -0.11700
C761        C  0.32355788  0.84747490  0.56684092    -0.01500
C762        C  0.31632025  0.86144461  0.54751457    -0.10600
C763        C  0.34615292  0.82997479  0.49576685     0.05900
H764        H  0.35774560  0.80751034  0.53787070     0.07800
H765        H  0.34497745  0.81743153  0.57764002     0.11200
H766        H  0.30439184  0.87626725  0.55007100     0.11500
H767        H  0.31884107  0.86801459  0.51036187     0.07800
C768        C  0.33131070  0.83563905  0.47639015    -0.11300
C769        C  0.33701000  0.82831471  0.45348102    -0.10600
C770        C  0.35722716  0.81444891  0.44941341    -0.01500
C771        C  0.37225007  0.80886691  0.46847808    -0.11700
C772        C  0.36701637  0.81689831  0.49131096    -0.10100
H773        H  0.31476195  0.84503586  0.47883391     0.07800
H774        H  0.32495509  0.83257359  0.43907059     0.11500
H775        H  0.38804567  0.79829920  0.46571007     0.11200
H776        H  0.37939487  0.81267730  0.50541402     0.07800
C777        C  0.22659521  0.09265724  0.78520443    -0.11300
C778        C  0.23062163  0.09971510  0.76151785     0.05800
C779        C  0.21094113  0.10711448  0.74783674    -0.10100
C780        C  0.18809021  0.10733073  0.75750087    -0.11700
C781        C  0.18446432  0.10096523  0.78127629    -0.01500
C782        C  0.20387135  0.09369517  0.79506375    -0.10600
C783        C  0.25516218  0.09979016  0.75131656     0.05900
H784        H  0.21310066  0.11329890  0.72977240     0.07800
H785        H  0.17333893  0.11323965  0.74661925     0.11200
H786        H  0.20137814  0.08846443  0.81340461     0.11500
H787        H  0.24092707  0.08615307  0.79625801     0.07800
C788        C  0.27523989  0.10303384  0.76596486    -0.11300
C789        C  0.29810841  0.10360419  0.75634717    -0.10600
C790        C  0.30145500  0.10171084  0.73178680    -0.01500
C791        C  0.28162395  0.09836341  0.71709070    -0.11700
C792        C  0.25882252  0.09705474  0.72674394    -0.10100
H793        H  0.27341775  0.10576755  0.78486236     0.07800
H794        H  0.31313611  0.10633530  0.76805581     0.11500
H795        H  0.28378145  0.09651075  0.69809404     0.11200
H796        H  0.24412709  0.09377149  0.71480332     0.07800
C797        C  0.31796229  0.96688806  0.64022561    -0.11300
C798        C  0.34039498  0.97013504  0.65070716     0.05800
C799        C  0.35471169  0.95013415  0.65495928    -0.10100
C800        C  0.34641156  0.92735362  0.64968648    -0.11700
C801        C  0.32359826  0.92406919  0.64006175    -0.01500
C802        C  0.30966561  0.94413153  0.63495319    -0.10600
C803        C  0.34812429  0.99413838  0.65841858     0.05900
H804        H  0.37222605  0.95208547  0.66266462     0.07800
H805        H  0.35767003  0.91227457  0.65368110     0.11200
H806        H  0.29201767  0.94223327  0.62754644     0.11500
H807        H  0.30638171  0.98189164  0.63695089     0.07800
C808        C  0.34316383  0.01424909  0.64444325    -0.11300
C809        C  0.34863400  0.03698690  0.65266025    -0.10600
C810        C  0.35916786  0.04015866  0.67506166    -0.01500
C811        C  0.36478685  0.02000937  0.68873590    -0.11700
C812        C  0.35933298  0.99726676  0.68050220    -0.10100
H813        H  0.33483025  0.01241239  0.62722086     0.07800
H814        H  0.34416565  0.05212313  0.64162359     0.11500
H815        H  0.37287039  0.02181935  0.70608154     0.11200
H816        H  0.36312219  0.98216476  0.69183957     0.07800
C817        C  0.77314044  0.24457417  0.39348726    -0.11300
C818        C  0.74881890  0.24066905  0.38879920     0.05800
C819        C  0.73466371  0.26049315  0.38285317    -0.10100
C820        C  0.74441976  0.28328766  0.38179907    -0.11700
C821        C  0.76872750  0.28681351  0.38578000    -0.01500
C822        C  0.78302259  0.26727424  0.39153823    -0.10600
C823        C  0.73841523  0.21614107  0.38955888     0.05900
H824        H  0.71609024  0.25858079  0.37843762     0.07800
H825        H  0.73305627  0.29810778  0.37719554     0.11200
H826        H  0.80178970  0.26963882  0.39504359     0.11500
H827        H  0.78470232  0.23024907  0.39889022     0.07800
C828        C  0.75275654  0.19595255  0.38588736    -0.11300
C829        C  0.74294701  0.17315716  0.38600000    -0.10600
C830        C  0.71845267  0.16994086  0.38897418    -0.01500
C831        C  0.70401897  0.18983223  0.39264105    -0.11700
C832        C  0.71390349  0.21257895  0.39338338    -0.10100
H833        H  0.77151206  0.19755350  0.38224819     0.07800
H834        H  0.75443335  0.15807904  0.38290470     0.11500
H835        H  0.68508030  0.18776988  0.39522365     0.11200
H836        H  0.70215282  0.22724435  0.39708451     0.07800
C837        C  0.71286099  0.10721551  0.27335883    -0.11300
C838        C  0.73684494  0.10128936  0.27002759     0.05800
C839        C  0.75066629  0.09485672  0.28977148    -0.10100
C840        C  0.74071773  0.09433695  0.31243053    -0.11700
C841        C  0.71677985  0.10045545  0.31583786    -0.01500
C842        C  0.70294005  0.10689235  0.29606617    -0.10600
C843        C  0.74743914  0.10172520  0.24602135     0.05900
H844        H  0.76914412  0.08998209  0.28763693     0.07800
H845        H  0.75186318  0.08936669  0.32730753     0.11200
H846        H  0.68446119  0.11177701  0.29813803     0.11500
H847        H  0.70189430  0.11244896  0.25843583     0.07800
C848        C  0.73528152  0.09172835  0.22672533    -0.11300
C849        C  0.74536410  0.09193779  0.20410100    -0.10600
C850        C  0.76777791  0.10224814  0.20031514    -0.01500
C851        C  0.77991729  0.11227558  0.21965138    -0.11700
C852        C  0.76986054  0.11198410  0.24228236    -0.10100
H853        H  0.71808185  0.08347107  0.22921174     0.07800
H854        H  0.73559028  0.08402316  0.18958443     0.11500
H855        H  0.79715576  0.12048004  0.21729493     0.11200
H856        H  0.77948134  0.12003874  0.25682924     0.07800
C857        C  0.66709662  0.99364925  0.37274704    -0.11300
C858        C  0.64438561  0.99080312  0.36281798     0.05800
C859        C  0.62991587  0.01083330  0.35960599    -0.10100
C860        C  0.63827521  0.03338327  0.36554201    -0.11700
C861        C  0.66132099  0.03633994  0.37469899    -0.01500
C862        C  0.67548545  0.01618639  0.37863283    -0.10600
C863        C  0.63639096  0.96714425  0.35477545     0.05900
H864        H  0.61221931  0.00905785  0.35225283     0.07800
H865        H  0.62686906  0.04855591  0.36244946     0.11200
H866        H  0.69333622  0.01787359  0.38560718     0.11500
H867        H  0.67871783  0.97851172  0.37517603     0.07800
C868        C  0.62568979  0.96444308  0.33240989    -0.11300
C869        C  0.61995954  0.94188850  0.32394184    -0.10600
C870        C  0.62478015  0.92161786  0.33771746    -0.01500
C871        C  0.63475016  0.92442779  0.36041859    -0.11700
C872        C  0.64054322  0.94695639  0.36883055    -0.10100
H873        H  0.62252901  0.97972042  0.32110996     0.07800
H874        H  0.61233621  0.94029926  0.30635961     0.11500
H875        H  0.63857177  0.90916672  0.37152363     0.11200
H876        H  0.64852238  0.94859743  0.38625376     0.07800
C877        C  0.77453442  0.22285034  0.63363694    -0.11300
C878        C  0.75498279  0.23619293  0.62558689     0.05800
C879        C  0.75872077  0.25985244  0.61832621    -0.10100
C880        C  0.78129469  0.27005142  0.61979736    -0.11700
C881        C  0.80059841  0.25659854  0.62792417    -0.01500
C882        C  0.79715489  0.23285478  0.63446648    -0.10600
C883        C  0.73078885  0.22560877  0.62547304     0.05900
H884        H  0.74424028  0.27050954  0.61150394     0.07800
H885        H  0.78374867  0.28836971  0.61435755     0.11200
H886        H  0.81184873  0.22227636  0.64095195     0.11500
H887        H  0.77234484  0.20478242  0.63989558     0.07800
C888        C  0.72758985  0.20123435  0.62107501    -0.11300
C889        C  0.70506260  0.19100541  0.62241786    -0.10600
C890        C  0.68518591  0.20501752  0.62750617    -0.01500
C891        C  0.68812084  0.22942392  0.63127817    -0.11700
C892        C  0.71073351  0.23957424  0.63055150    -0.10100
H893        H  0.74247065  0.19000390  0.61654182     0.07800
H894        H  0.70311822  0.17214423  0.61918112     0.11500
H895        H  0.67301489  0.24049909  0.63545376     0.11200
H896        H  0.71250233  0.25828756  0.63453957     0.07800
C897        C  0.52495210  0.12474647  0.66568704    -0.11300
C898        C  0.50607071  0.12995949  0.65007453     0.05800
C899        C  0.51118505  0.14249070  0.62897753    -0.10100
C900        C  0.53419544  0.15058983  0.62431107    -0.11700
C901        C  0.55273190  0.14562316  0.64019603    -0.01500
C902        C  0.54803033  0.13217646  0.66061173    -0.10600
C903        C  0.48112901  0.12362890  0.65657920     0.05900
H904        H  0.49743346  0.14633151  0.61611422     0.07800
H905        H  0.53750374  0.16078338  0.60831937     0.11200
H906        H  0.56202434  0.12837848  0.67326750     0.11500
H907        H  0.52192766  0.11573636  0.68238537     0.07800
C908        C  0.47631206  0.10421267  0.67167796    -0.11300
C909        C  0.45334690  0.10003838  0.68006133    -0.10600
C910        C  0.43449605  0.11465641  0.67292000    -0.01500
C911        C  0.43888666  0.13319375  0.65683345    -0.11700
C912        C  0.46195395  0.13783757  0.64899865    -0.10100
H913        H  0.49028378  0.09229960  0.67734029     0.07800
H914        H  0.45033957  0.08541220  0.69220615     0.11500
H915        H  0.42464227  0.14481153  0.65114679     0.11200
H916        H  0.46472917  0.15319825  0.63778867     0.07800
C917        C  0.64589754  0.11571454  0.54132101    -0.11300
C918        C  0.63978187  0.12863070  0.52087172     0.05800
C919        C  0.62749064  0.15017991  0.52327819    -0.10100
C920        C  0.62200543  0.15897024  0.54573984    -0.11700
C921        C  0.62863725  0.14632425  0.56623191    -0.01500
C922        C  0.64032959  0.12443919  0.56377278    -0.10600
C923        C  0.64731510  0.12039971  0.49715237     0.05900
H924        H  0.62282224  0.16064774  0.50779720     0.07800
H925        H  0.61301303  0.17589308  0.54704942     0.11200
H926        H  0.64563656  0.11424541  0.57921983     0.11500
H927        H  0.65516930  0.09894679  0.53993932     0.07800
C928        C  0.67050776  0.11197042  0.49360074    -0.11300
C929        C  0.67843928  0.10644948  0.47082307    -0.10600
C930        C  0.66332007  0.10931007  0.45117075    -0.01500
C931        C  0.63980659  0.11673511  0.45488086    -0.11700
C932        C  0.63188489  0.12223411  0.47764976    -0.10100
H933        H  0.68284630  0.11058803  0.50831358     0.07800
H934        H  0.69665541  0.10079544  0.46852141     0.11500
H935        H  0.62766062  0.11887547  0.44010187     0.11200
H936        H  0.61380992  0.12831694  0.47997371     0.07800
C937        C  0.36759914  0.72148675  0.29119337    -0.11300
C938        C  0.37534922  0.73519775  0.27167216     0.05800
C939        C  0.38203435  0.75895863  0.27576939    -0.10100
C940        C  0.38008383  0.76889515  0.29834906    -0.11700
C941        C  0.37232410  0.75510138  0.31755317    -0.01500
C942        C  0.36651120  0.73123018  0.31393065    -0.10600
C943        C  0.37570187  0.72503465  0.24716630     0.05900
H944        H  0.38884549  0.77002797  0.26161693     0.07800
H945        H  0.38497648  0.78730769  0.30089978     0.11200
H946        H  0.36032116  0.72034692  0.32855054     0.11500
H947        H  0.36170439  0.70336049  0.28898580     0.07800
C948        C  0.37824978  0.70042435  0.24355355    -0.11300
C949        C  0.37697967  0.69081183  0.22076461    -0.10600
C950        C  0.37396703  0.70559296  0.20091039    -0.01500
C951        C  0.37223800  0.73017137  0.20423478    -0.11700
C952        C  0.37273923  0.73974957  0.22706915    -0.10100
H953        H  0.38130079  0.68841558  0.25826177     0.07800
H954        H  0.37861476  0.67178964  0.21864254     0.11500
H955        H  0.36969002  0.74194384  0.18920989     0.11200
H956        H  0.37010589  0.75866509  0.22882272     0.07800
C957        C  0.27436991  0.73815894  0.11730271    -0.11300
C958        C  0.25448391  0.72545120  0.12544172     0.05800
C959        C  0.25778190  0.70250658  0.13474173    -0.10100
C960        C  0.28050631  0.69266620  0.13624884    -0.11700
C961        C  0.30042728  0.70555030  0.12847662    -0.01500
C962        C  0.29708498  0.72833096  0.11881386    -0.10600
C963        C  0.23054026  0.73645421  0.12513875     0.05900
H964        H  0.24286831  0.69238315  0.14143235     0.07800
H965        H  0.28247779  0.67505116  0.14374507     0.11200
H966        H  0.31203871  0.73866038  0.11253725     0.11500
H967        H  0.27236833  0.75573752  0.10973179     0.07800
C968        C  0.22771495  0.76041523  0.13132761    -0.11300
C969        C  0.20515313  0.77058345  0.13228891    -0.10600
C970        C  0.18486952  0.75704412  0.12705592    -0.01500
C971        C  0.18768062  0.73321816  0.12034130    -0.11700
C972        C  0.21028851  0.72300910  0.11944767    -0.10100
H973        H  0.24291369  0.77117715  0.13608736     0.07800
H974        H  0.20359910  0.78901127  0.13743198     0.11500
H975        H  0.17239211  0.72234847  0.11612731     0.11200
H976        H  0.21192526  0.70458961  0.11431159     0.07800
C977        C  0.75233987  0.26212063  0.12679022    -0.11300
C978        C  0.73803136  0.24218097  0.12192280     0.05800
C979        C  0.71363734  0.24581392  0.11761923    -0.10100
C980        C  0.70367172  0.26844084  0.11936035    -0.11700
C981        C  0.71796978  0.28809273  0.12463509    -0.01500
C982        C  0.74245137  0.28484240  0.12780253    -0.10600
C983        C  0.74823809  0.21770071  0.12232883     0.05900
H984        H  0.70209321  0.23118893  0.11300069     0.07800
H985        H  0.68478760  0.27061366  0.11642873     0.11200
H986        H  0.75381818  0.29978110  0.13196148     0.11500
H987        H  0.77106380  0.26022626  0.13060698     0.07800
C988        C  0.77221300  0.21362383  0.11646963    -0.11300
C989        C  0.78197929  0.19087384  0.11825866    -0.10600
C990        C  0.76784261  0.17158465  0.12520870    -0.01500
C991        C  0.74383306  0.17533992  0.13042147    -0.11700
C992        C  0.73422578  0.19816678  0.12936804    -0.10100
H993        H  0.78352382  0.22793875  0.11043938     0.07800
H994        H  0.80053019  0.18828929  0.11396338     0.11500
H995        H  0.73268835  0.16072491  0.13611714     0.11200
H996        H  0.71593784  0.20046311  0.13469466     0.07800
C997        C  0.71819079  0.35152914  0.24115312    -0.11300
C998        C  0.74084935  0.36161153  0.24385632     0.05800
C999        C  0.75275860  0.37027383  0.22374755    -0.10100
C1000       C  0.74208882  0.36904987  0.20137432    -0.11700
C1001       C  0.71936926  0.35900383  0.19868032    -0.01500
C1002       C  0.70756790  0.35021438  0.21881150    -0.10600
C1003       C  0.75194647  0.36277073  0.26764942     0.05900
H1004       H  0.77018813  0.37823919  0.22538113     0.07800
H1005       H  0.75165135  0.37596805  0.18619540     0.11200
H1006       H  0.69013537  0.34223828  0.21732045     0.11500
H1007       H  0.70879600  0.34435544  0.25632510     0.07800
C1008       C  0.73839624  0.36960986  0.28735041    -0.11300
C1009       C  0.74812681  0.36892896  0.31011133    -0.10600
C1010       C  0.77160166  0.36127427  0.31368219    -0.01500
C1011       C  0.78546579  0.35525092  0.29387375    -0.11700
C1012       C  0.77573713  0.35607117  0.27103933    -0.10100
H1013       H  0.72014612  0.37525307  0.28515737     0.07800
H1014       H  0.73704544  0.37390105  0.32496773     0.11500
H1015       H  0.80366442  0.34945203  0.29604738     0.11200
H1016       H  0.78654966  0.35066416  0.25613399     0.07800
C1017       C  0.71152865  0.59169613  0.26392524    -0.11300
C1018       C  0.73121801  0.60003198  0.25104203     0.05800
C1019       C  0.72767514  0.60907555  0.22805733    -0.10100
C1020       C  0.70494809  0.60989498  0.21819249    -0.11700
C1021       C  0.68522947  0.60166119  0.23108056    -0.01500
C1022       C  0.68875904  0.59248648  0.25403774    -0.10600
C1023       C  0.75532443  0.59982154  0.26166319     0.05900
H1024       H  0.74244288  0.61596105  0.21784555     0.07800
H1025       H  0.70282979  0.61715472  0.20049973     0.11200
H1026       H  0.67392987  0.58597364  0.26440249     0.11500
H1027       H  0.71376315  0.58440950  0.28159409     0.07800
C1028       C  0.75870746  0.60650353  0.28540813    -0.11300
C1029       C  0.78147862  0.60715127  0.29520953    -0.10600
C1030       C  0.80137471  0.60103310  0.28151324    -0.01500
C1031       C  0.79798480  0.59410253  0.25782397    -0.11700
C1032       C  0.77519304  0.59353540  0.24799417    -0.10100
H1033       H  0.74377980  0.61173179  0.29628388     0.07800
H1034       H  0.78348844  0.61257427  0.31351485     0.11500
H1035       H  0.81294863  0.58925471  0.24682099     0.11200
H1036       H  0.77309122  0.58805616  0.22971420     0.07800
C1037       C  0.60181377  0.69858343  0.26301502    -0.11300
C1038       C  0.61102849  0.71829198  0.25081688     0.05800
C1039       C  0.62102272  0.71510519  0.22824976    -0.10100
C1040       C  0.62185224  0.69257223  0.21807771    -0.11700
C1041       C  0.61262894  0.67281100  0.23025595    -0.01500
C1042       C  0.60255868  0.67605647  0.25281600    -0.10600
C1043       C  0.61043794  0.74211046  0.26167707     0.05900
H1044       H  0.62852843  0.72999051  0.21865159     0.07800
H1045       H  0.62992006  0.69061566  0.20076222     0.11200
H1046       H  0.59530743  0.66119018  0.26263738     0.11500
H1047       H  0.59385187  0.70065063  0.28036075     0.07800
C1048       C  0.60321988  0.76190793  0.24830431    -0.11300
C1049       C  0.60319835  0.78449888  0.25838984    -0.10600
C1050       C  0.61055947  0.78772371  0.28199091    -0.01500
C1051       C  0.61754439  0.76783765  0.29542662    -0.11700
C1052       C  0.61741387  0.74523758  0.28537878    -0.10100
H1053       H  0.59752824  0.75987702  0.23007052     0.07800
H1054       H  0.59769923  0.79946552  0.24759430     0.11500
H1055       H  0.62337835  0.76974629  0.31363200     0.11200
H1056       H  0.62325564  0.73026245  0.29597298     0.07800
C1057       C  0.50842748  0.61256319  0.17886414    -0.11300
C1058       C  0.50507436  0.62324106  0.15652415     0.05800
C1059       C  0.52503067  0.62763639  0.14220264    -0.10100
C1060       C  0.54787257  0.62237309  0.15046539    -0.11700
C1061       C  0.55122846  0.61261532  0.17322468    -0.01500
C1062       C  0.53121109  0.60727718  0.18709604    -0.10600
C1063       C  0.48101206  0.63118648  0.14910504     0.05900
H1064       H  0.52300520  0.63550448  0.12475302     0.07800
H1065       H  0.56293607  0.62652330  0.13925820     0.11200
H1066       H  0.53315906  0.59973418  0.20469494     0.11500
H1067       H  0.49348618  0.60920504  0.19048717     0.07800
C1068       C  0.46087933  0.61751225  0.15465891    -0.11300
C1069       C  0.43808811  0.62625078  0.15024391    -0.10600
C1070       C  0.43487918  0.64885662  0.14013072    -0.01500
C1071       C  0.45500337  0.66211881  0.13361128    -0.11700
C1072       C  0.47781831  0.65337449  0.13804768    -0.10100
H1073       H  0.46274222  0.60017829  0.16280942     0.07800
H1074       H  0.42295703  0.61548268  0.15528864     0.11500
H1075       H  0.45314397  0.67955940  0.12568796     0.11200
H1076       H  0.49294088  0.66446904  0.13374465     0.07800
C1077       C  0.65553754  0.51119994  0.15709474    -0.11300
C1078       C  0.63947152  0.49240176  0.16087551     0.05800
C1079       C  0.61753773  0.49742227  0.17175888    -0.10100
C1080       C  0.61216914  0.52043315  0.17926985    -0.11700
C1081       C  0.62831752  0.53898305  0.17541001    -0.01500
C1082       C  0.64986604  0.53426008  0.16398927    -0.10600
C1083       C  0.64596239  0.46767089  0.15412314     0.05900
H1084       H  0.60447422  0.48358985  0.17453887     0.07800
H1085       H  0.59538682  0.52377702  0.18797680     0.11200
H1086       H  0.66274890  0.54829000  0.16121116     0.11500
H1087       H  0.67283456  0.50808164  0.14938078     0.07800
C1088       C  0.66079962  0.46337143  0.13452097    -0.11300
C1089       C  0.66825980  0.44037355  0.12916807    -0.10600
C1090       C  0.66061878  0.42102542  0.14292311    -0.01500
C1091       C  0.64514784  0.42507517  0.16197998    -0.11700
C1092       C  0.63809328  0.44814826  0.16767896    -0.10100
H1093       H  0.66678649  0.47778801  0.12326138     0.07800
H1094       H  0.68006999  0.43772452  0.11428422     0.11500
H1095       H  0.63922353  0.41048143  0.17306496     0.11200
H1096       H  0.62707176  0.45067338  0.18317181     0.07800
C1097       C  0.27317857  0.37231430  0.75185626    -0.11300
C1098       C  0.25385564  0.36344258  0.76494371     0.05800
C1099       C  0.25786740  0.35467345  0.78796276    -0.10100
C1100       C  0.28078028  0.35423856  0.79744474    -0.11700
C1101       C  0.30019864  0.36255239  0.78412111    -0.01500
C1102       C  0.29611621  0.37186177  0.76133457    -0.10600
C1103       C  0.22976426  0.36253015  0.75429763     0.05900
H1104       H  0.24339953  0.34750634  0.79839385     0.07800
H1105       H  0.28331319  0.34697356  0.81509562     0.11200
H1106       H  0.31066929  0.37856440  0.75071141     0.11500
H1107       H  0.27056049  0.37955613  0.73421906     0.07800
C1108       C  0.20956038  0.36789439  0.76786722    -0.11300
C1109       C  0.18688988  0.36653914  0.75782255    -0.10600
C1110       C  0.18394980  0.35971016  0.73403467    -0.01500
C1111       C  0.20415648  0.35432475  0.72050341    -0.11700
C1112       C  0.22679577  0.35574377  0.73051590    -0.10100
H1113       H  0.21129956  0.37335883  0.78618291     0.07800
H1114       H  0.17165740  0.37080158  0.76872282     0.11500
H1115       H  0.20250285  0.34896889  0.70214640     0.11200
H1116       H  0.24198377  0.35111410  0.71972669     0.07800
C1117       C  0.38481892  0.26485880  0.74898403    -0.11300
C1118       C  0.37637339  0.24474253  0.76114738     0.05800
C1119       C  0.36652340  0.24766106  0.78386019    -0.10100
C1120       C  0.36505065  0.27014948  0.79414927    -0.11700
C1121       C  0.37342077  0.29028242  0.78197598    -0.01500
C1122       C  0.38338845  0.28736621  0.75929490    -0.10600
C1123       C  0.37719174  0.22084098  0.75007000     0.05900
H1124       H  0.35949752  0.23257003  0.79352232     0.07800
H1125       H  0.35716723  0.27176932  0.81157331     0.11200
H1126       H  0.39005703  0.30250116  0.74944537     0.11500
H1127       H  0.39268212  0.26316712  0.73155537     0.07800
C1128       C  0.37106100  0.21777746  0.72608240    -0.11300
C1129       C  0.36999024  0.19504856  0.71621059    -0.10600
C1130       C  0.37519175  0.17489077  0.73006045    -0.01500
C1131       C  0.38219807  0.17804273  0.75378887    -0.11700
C1132       C  0.38312066  0.20074180  0.76368704    -0.10100
H1133       H  0.36630127  0.23288883  0.71514670     0.07800
H1134       H  0.36472962  0.19324942  0.69781515     0.11500
H1135       H  0.38650812  0.16291971  0.76489150     0.11200
H1136       H  0.38832394  0.20256612  0.78209868     0.07800
C1137       C  0.23776336  0.70082906  0.90029741    -0.11300
C1138       C  0.25006215  0.72042848  0.89094187     0.05800
C1139       C  0.27257157  0.71693380  0.88087886    -0.10100
C1140       C  0.28240027  0.69420402  0.87978463    -0.11700
C1141       C  0.26998038  0.67450826  0.88885774    -0.01500
C1142       C  0.24763905  0.67810198  0.89932459    -0.10600
C1143       C  0.23904319  0.74429262  0.89075615     0.05900
H1144       H  0.28229606  0.73169625  0.87329992     0.07800
H1145       H  0.29962610  0.69204406  0.87156443     0.11200
H1146       H  0.23767087  0.66333495  0.90656360     0.11500
H1147       H  0.22046564  0.70310392  0.90834781     0.07800
C1148       C  0.21535694  0.74708681  0.88346814    -0.11300
C1149       C  0.20516241  0.76963099  0.88214242    -0.10600
C1150       C  0.21838286  0.78986850  0.88824246    -0.01500
C1151       C  0.24197239  0.78703634  0.89598028    -0.11700
C1152       C  0.25223796  0.76446412  0.89710521    -0.10100
H1153       H  0.20487959  0.73185719  0.87824918     0.07800
H1154       H  0.18693824  0.77119847  0.87618539     0.11500
H1155       H  0.25259008  0.80226617  0.90090643     0.11200
H1156       H  0.27048045  0.76274757  0.90298277     0.07800
C1157       C  0.23406015  0.60967261  0.79069935    -0.11300
C1158       C  0.24610721  0.59892399  0.77165777     0.05800
C1159       C  0.26873938  0.58912779  0.77594634    -0.10100
C1160       C  0.27933861  0.59080015  0.79832243    -0.11700
C1161       C  0.26724925  0.60157908  0.81709799    -0.01500
C1162       C  0.24440188  0.61067908  0.81325405    -0.10600
C1163       C  0.23553044  0.59864336  0.74733724     0.05900
H1164       H  0.27835288  0.58010926  0.76202341     0.07800
H1165       H  0.29687303  0.58336781  0.80108077     0.11200
H1166       H  0.23485955  0.61920174  0.82755374     0.11500
H1167       H  0.21684952  0.61785602  0.78813101     0.07800
C1168       C  0.21075631  0.59756585  0.74401724    -0.11300
C1169       C  0.20092883  0.59863827  0.72123140    -0.10600
C1170       C  0.21562886  0.60029547  0.70119832    -0.01500
C1171       C  0.24033191  0.60068050  0.70435329    -0.11700
C1172       C  0.25015081  0.60013150  0.72712751    -0.10100
H1173       H  0.19887124  0.59585581  0.75900994     0.07800
H1174       H  0.18179123  0.59805715  0.71926831     0.11500
H1175       H  0.25207431  0.60215665  0.68921861     0.11200
H1176       H  0.26925312  0.60153649  0.72882267     0.07800
C1177       C  0.32700857  0.60662256  0.99178714    -0.11300
C1178       C  0.34287400  0.62546858  0.99615330     0.05800
C1179       C  0.35189312  0.63818177  0.97655751    -0.10100
C1180       C  0.34459364  0.63282084  0.95347436    -0.11700
C1181       C  0.32768907  0.61499560  0.94941830    -0.01500
C1182       C  0.31926883  0.60167524  0.96875081    -0.10600
C1183       C  0.34881322  0.63276746  0.02095289     0.05900
H1184       H  0.36382323  0.65303814  0.97897789     0.07800
H1185       H  0.35131506  0.64343920  0.93889918     0.11200
H1186       H  0.30645139  0.58759016  0.96609353     0.11500
H1187       H  0.32021204  0.59582385  0.00617835     0.07800
C1188       C  0.33218867  0.62967969  0.03937824    -0.11300
C1189       C  0.33708710  0.63761297  0.06230688    -0.10600
C1190       C  0.35838932  0.64946320  0.06727077    -0.01500
C1191       C  0.37510323  0.65261066  0.04913410    -0.11700
C1192       C  0.37055495  0.64398941  0.02631715    -0.10100
H1193       H  0.31498533  0.62178749  0.03606325     0.07800
H1194       H  0.32380777  0.63527068  0.07600595     0.11500
H1195       H  0.39175980  0.66155000  0.05267963     0.11200
H1196       H  0.38411493  0.64624465  0.01291128     0.07800
C1197       C  0.35974068  0.46713946  0.83323514    -0.11300
C1198       C  0.35049443  0.47038111  0.85614696     0.05800
C1199       C  0.34684657  0.45036854  0.87065561    -0.10100
C1200       C  0.35168443  0.42759039  0.86221144    -0.11700
C1201       C  0.36032978  0.42430842  0.83908691    -0.01500
C1202       C  0.36461400  0.44437166  0.82479959    -0.10600
C1203       C  0.34321689  0.49436898  0.86419289     0.05900
H1204       H  0.34000907  0.45231434  0.88848710     0.07800
H1205       H  0.34828517  0.41251202  0.87369475     0.11200
H1206       H  0.37116381  0.44246944  0.80685152     0.11500
H1207       H  0.36241004  0.48216304  0.82147402     0.07800
C1208       C  0.35689795  0.51447392  0.85853110    -0.11300
C1209       C  0.34866640  0.53722397  0.86391851    -0.10600
C1210       C  0.32654566  0.54035457  0.87502023    -0.01500
C1211       C  0.31339976  0.52020969  0.88164495    -0.11700
C1212       C  0.32164579  0.49748433  0.87629437    -0.10100
H1213       H  0.37378630  0.51261918  0.84957359     0.07800
H1214       H  0.35935517  0.55238754  0.85878367     0.11500
H1215       H  0.29636243  0.52200185  0.89032400     0.11200
H1216       H  0.31058321  0.48237332  0.88073687     0.07800
C1217       C  0.72611996  0.25746342  0.89460558    -0.11300
C1218       C  0.73010060  0.23346418  0.88899287     0.05800
C1219       C  0.71041070  0.21922105  0.88300314    -0.10100
C1220       C  0.68748842  0.22873481  0.88256367    -0.11700
C1221       C  0.68382693  0.25281988  0.88744471    -0.01500
C1222       C  0.70330096  0.26708944  0.89350854    -0.10600
C1223       C  0.75464466  0.22348651  0.88902646     0.05900
H1224       H  0.71267760  0.20081330  0.87808775     0.07800
H1225       H  0.67270645  0.21745510  0.87763657     0.11200
H1226       H  0.70081860  0.28568466  0.89762850     0.11500
H1227       H  0.74060906  0.26890214  0.89995234     0.07800
C1228       C  0.77427745  0.23781077  0.88301271    -0.11300
C1229       C  0.79725166  0.22846668  0.88299683    -0.10600
C1230       C  0.80105671  0.20445576  0.88832926    -0.01500
C1231       C  0.78162179  0.19001012  0.89411119    -0.11700
C1232       C  0.75871219  0.19948490  0.89479514    -0.10100
H1233       H  0.77194117  0.25618712  0.87785054     0.03000
H1234       H  0.81199254  0.23984288  0.87813501     0.11500
H1235       H  0.78421364  0.17144358  0.89842721     0.11200
H1236       H  0.74424342  0.18796089  0.90004089     0.07800
C1237       C  0.61581772  0.25821802  0.77203644    -0.11300
C1238       C  0.60739330  0.23498814  0.76877563     0.05800
C1239       C  0.59952140  0.22204095  0.78862305    -0.10100
C1240       C  0.60064469  0.23189423  0.81134336    -0.11700
C1241       C  0.60983041  0.25485155  0.81471086    -0.01500
C1242       C  0.61708196  0.26801863  0.79475200    -0.10600
C1243       C  0.60794297  0.22395603  0.74491301     0.05900
H1244       H  0.59264429  0.20421299  0.78657278     0.07800
H1245       H  0.59472127  0.22135244  0.82630812     0.11200
H1246       H  0.62412378  0.28578863  0.79670097     0.11500
H1247       H  0.62216895  0.26854334  0.75709700     0.07800
C1248       C  0.60086007  0.23682441  0.72470339    -0.11300
C1249       C  0.60257378  0.22676346  0.70212729    -0.10600
C1250       C  0.61156389  0.20368524  0.69927851    -0.01500
C1251       C  0.61838747  0.19072902  0.71953435    -0.11700
C1252       C  0.61652542  0.20073511  0.74210016    -0.10100
H1253       H  0.59399498  0.25467675  0.72637643     0.07800
H1254       H  0.59709761  0.23718008  0.68688473     0.11500
H1255       H  0.62537690  0.17291755  0.71796060     0.11200
H1256       H  0.62239419  0.19051201  0.75732875     0.07800
C1257       C  0.63024940  0.32895277  0.03952685    -0.11300
C1258       C  0.64427500  0.33439690  0.01959428     0.05800
C1259       C  0.66580704  0.34654235  0.02301258    -0.10100
C1260       C  0.67348063  0.35245065  0.04580443    -0.11700
C1261       C  0.65985445  0.34631570  0.06578052    -0.01500
C1262       C  0.63796490  0.33482312  0.06237649    -0.10600
C1263       C  0.63718960  0.32641036  0.99546634     0.05900
H1264       H  0.67722136  0.35072530  0.00812244     0.07800
H1265       H  0.69047614  0.36123024  0.04779103     0.11200
H1266       H  0.62703493  0.32986277  0.07739943     0.11500
H1267       H  0.61339531  0.31992210  0.03747940     0.07800
C1268       C  0.62693333  0.30390610  0.99216388    -0.11300
C1269       C  0.62172616  0.29566714  0.96938183    -0.10600
C1270       C  0.62671301  0.30970061  0.94932947    -0.01500
C1271       C  0.63651335  0.33240188  0.95262765    -0.11700
C1272       C  0.64165810  0.34067109  0.97542653    -0.10100
H1273       H  0.62360917  0.29229861  0.00715855     0.07800
H1274       H  0.61426889  0.27805583  0.96746805     0.11500
H1275       H  0.64051106  0.34369782  0.93755962     0.11200
H1276       H  0.64924858  0.35822264  0.97735447     0.07800
C1277       C  0.52466209  0.33402888  0.84762199    -0.11300
C1278       C  0.50545838  0.32986200  0.86306650     0.05800
C1279       C  0.50984338  0.31722671  0.88431731    -0.10100
C1280       C  0.53245098  0.30816147  0.88934313    -0.11700
C1281       C  0.55132966  0.31229992  0.87369188    -0.01500
C1282       C  0.54733250  0.32568290  0.85306604    -0.10600
C1283       C  0.48090013  0.33736485  0.85620513     0.05900
H1284       H  0.49585295  0.31412176  0.89707904     0.07800
H1285       H  0.53521389  0.29803370  0.90548184     0.11200
H1286       H  0.56159039  0.32884343  0.84057110     0.11500
H1287       H  0.52220521  0.34299476  0.83080806     0.07800
C1288       C  0.47708448  0.35667871  0.84062365    -0.11300
C1289       C  0.45434136  0.36182213  0.83200149    -0.10600
C1290       C  0.43477943  0.34832948  0.83940340    -0.01500
C1291       C  0.43826976  0.32992982  0.85589226    -0.11700
C1292       C  0.46102585  0.32430767  0.86394086    -0.10100
H1293       H  0.49164049  0.36776734  0.83480129     0.07800
H1294       H  0.45205749  0.37633218  0.81954575     0.11500
H1295       H  0.42348712  0.31915263  0.86182204     0.11200
H1296       H  0.46295371  0.30905472  0.87548382     0.07800
loop_ 
_geom_bond_atom_site_label_1 
_geom_bond_atom_site_label_2 
_geom_bond_distance 
_geom_bond_site_symmetry_2 
_ccdc_geom_bond_type 
O1           Cu9   2.012       .  S
O1           C11   1.279       .  A
O2           Cu9   2.011       .  S
O2           C12   1.279       .  A
O3           Cu9   2.016       .  S
O3           C13   1.279       .  A
O4           Cu9   2.016       .  S
O4           C14   1.279       .  A
O5          Cu10   2.001       .  S
O5           C14   1.277       .  A
O6          Cu10   1.997       .  S
O6           C13   1.277       .  A
O7          Cu10   2.009       .  S
O7           C12   1.278       .  A
O8          Cu10   2.011       .  S
O8           C11   1.279       .  A
Cu9         Cu10   2.371       .  S
C11        C1241   1.483       .  S
C12        C1270   1.482       .  S
C13        C1281   1.473       .  S
C14        C1221   1.473       .  S
O15         Cu23   2.012       .  S
O15          C25   1.279       .  A
O16         Cu23   2.014       .  S
O16          C26   1.280       .  A
O17         Cu23   2.004       .  S
O17          C27   1.277       .  A
O18         Cu23   2.007       .  S
O18          C28   1.277       .  A
O19         Cu24   2.016       .  S
O19          C28   1.279       .  A
O20         Cu24   2.014       .  S
O20          C27   1.279       .  A
O21         Cu24   2.002       .  S
O21          C26   1.277       .  A
O22         Cu24   2.005       .  S
O22          C25   1.278       .  A
Cu23        Cu24   2.371       .  S
C25        C1141   1.481       .  S
C26        C1210   1.481       .  S
C27        C1181   1.478       .  S
C28        C1161   1.471       .  S
O29         Cu37   2.002       .  S
O29          C39   1.277       .  A
O30         Cu37   2.008       .  S
O30          C40   1.278       .  A
O31         Cu37   2.018       .  S
O31          C41   1.280       .  A
O32         Cu37   2.021       .  S
O32          C42   1.280       .  A
O33         Cu38   1.992       .  S
O33          C42   1.276       .  A
O34         Cu38   1.992       .  S
O34          C41   1.276       .  A
O35         Cu38   2.016       .  S
O35          C40   1.280       .  A
O36         Cu38   2.016       .  S
O36          C39   1.280       .  A
Cu37        Cu38   2.371       .  S
C39        C1201   1.481       .  S
C40        C1121   1.484       .  S
C41        C1101   1.479       .  S
C42        C1290   1.476       .  S
O43         Cu51   2.003       .  S
O43          C53   1.277       .  A
O44         Cu51   2.003       .  S
O44          C54   1.278       .  A
O45         Cu51   1.999       .  S
O45          C55   1.277       .  A
O46         Cu51   2.010       .  S
O46          C56   1.278       .  A
O47         Cu52   2.005       .  S
O47          C56   1.278       .  A
O48         Cu52   2.012       .  S
O48          C55   1.279       .  A
O49         Cu52   2.004       .  S
O49          C54   1.278       .  A
O50         Cu52   2.006       .  S
O50          C53   1.277       .  A
Cu51        Cu52   2.372       .  S
C53        C1081   1.470       .  S
C54        C1041   1.477       .  S
C55        C1021   1.479       .  S
C56        C1061   1.481       .  S
O57         Cu65   2.014       .  S
O57          C67   1.279       .  A
O58         Cu65   2.010       .  S
O58          C68   1.278       .  A
O59         Cu65   2.011       .  S
O59          C69   1.279       .  A
O60         Cu65   2.013       .  S
O60          C70   1.279       .  A
O61         Cu66   2.001       .  S
O61          C70   1.278       .  A
O62         Cu66   2.000       .  S
O62          C69   1.277       .  A
O63         Cu66   2.006       .  S
O63          C68   1.277       .  A
O64         Cu66   2.006       .  S
O64          C67   1.278       .  A
Cu65        Cu66   2.372       .  S
C67        C1090   1.477       .  S
C68         C981   1.473       .  S
C69        C1001   1.479       .  S
C70        C1261   1.481       .  S
O71         Cu79   2.003       .  S
O71          C81   1.277       .  A
O72         Cu79   2.006       .  S
O72          C82   1.278       .  A
O73         Cu79   2.006       .  S
O73          C83   1.278       .  A
O74         Cu79   2.008       .  S
O74          C84   1.278       .  A
O75         Cu80   2.009       .  S
O75          C84   1.278       .  A
O76         Cu80   2.008       .  S
O76          C83   1.278       .  A
O77         Cu80   2.014       .  S
O77          C82   1.279       .  A
O78         Cu80   2.013       .  S
O78          C81   1.278       .  A
Cu79        Cu80   2.371       .  S
C81        C1190   1.472       .  S
C82         C950   1.476       .  S
C83         C961   1.480       .  S
C84        C1070   1.481       .  S
O85         Cu93   2.008       .  S
O85          C95   1.278       .  A
O86         Cu93   2.010       .  S
O86          C96   1.279       .  A
O87         Cu93   2.004       .  S
O87          C97   1.277       .  A
O88         Cu93   2.006       .  S
O88          C98   1.277       .  A
O89         Cu94   2.003       .  S
O89          C98   1.277       .  A
O90         Cu94   2.003       .  S
O90          C97   1.277       .  A
O91         Cu94   2.004       .  S
O91          C96   1.278       .  A
O92         Cu94   2.000       .  S
O92          C95   1.277       .  A
Cu93        Cu94   2.373       .  S
C95         C921   1.478       .  S
C96        C1250   1.481       .  S
C97         C890   1.470       .  S
C98         C901   1.472       .  S
O99        Cu107   2.007       .  S
O99         C109   1.278       .  A
O100       Cu107   2.001       .  S
O100        C110   1.278       .  A
O101       Cu107   2.007       .  S
O101        C111   1.278       .  A
O102       Cu107   2.007       .  S
O102        C112   1.278       .  A
O103       Cu108   2.002       .  S
O103        C112   1.277       .  A
O104       Cu108   2.007       .  S
O104        C111   1.278       .  A
O105       Cu108   2.006       .  S
O105        C110   1.278       .  A
O106       Cu108   1.998       .  S
O106        C109   1.277       .  A
Cu107      Cu108   2.372       .  S
C109        C930   1.476       .  S
C110        C841   1.478       .  S
C111        C830   1.475       .  S
C112        C861   1.478       .  S
O113       Cu121   2.013       .  S
O113        C123   1.279       .  A
O114       Cu121   2.014       .  S
O114        C124   1.279       .  A
O115       Cu121   2.013       .  S
O115        C125   1.278       .  A
O116       Cu121   2.010       .  S
O116        C126   1.278       .  A
O117       Cu122   2.003       .  S
O117        C126   1.277       .  A
O118       Cu122   2.006       .  S
O118        C125   1.278       .  A
O119       Cu122   2.012       .  S
O119        C124   1.279       .  A
O120       Cu122   2.009       .  S
O120        C123   1.278       .  A
Cu121      Cu122   2.371       .  S
C123        C810   1.483       .  S
C124       C1130   1.483       .  S
C125        C790   1.476       .  S
C126        C910   1.475       .  S
O127       Cu135   2.003       .  S
O127        C137   1.277       .  A
O128       Cu135   2.003       .  S
O128        C138   1.277       .  A
O129       Cu135   2.007       .  S
O129        C139   1.278       .  A
O130       Cu135   2.006       .  S
O130        C140   1.278       .  A
O131       Cu136   2.010       .  S
O131        C140   1.278       .  A
O132       Cu136   2.011       .  S
O132        C139   1.279       .  A
O133       Cu136   2.005       .  S
O133        C138   1.278       .  A
O134       Cu136   2.005       .  S
O134        C137   1.277       .  A
Cu135      Cu136   2.372       .  S
C137        C721   1.470       .  S
C138        C761   1.473       .  S
C139        C801   1.482       .  S
C140        C741   1.481       .  S
O141       Cu149   2.006       .  S
O141        C151   1.278       .  A
O142       Cu149   2.008       .  S
O142        C152   1.278       .  A
O143       Cu149   2.007       .  S
O143        C153   1.278       .  A
O144       Cu149   2.009       .  S
O144        C154   1.279       .  A
O145       Cu150   1.997       .  S
O145        C154   1.277       .  A
O146       Cu150   1.998       .  S
O146        C153   1.277       .  A
O147       Cu150   2.003       .  S
O147        C152   1.278       .  A
O148       Cu150   2.002       .  S
O148        C151   1.278       .  A
Cu149      Cu150   2.371       .  S
C151        C701   1.478       .  S
C152        C690   1.479       .  S
C153       C1050   1.477       .  S
C154        C870   1.477       .  S
O155       Cu163   2.003       .  S
O155        C165   1.278       .  A
O156       Cu163   2.005       .  S
O156        C166   1.277       .  A
O157       Cu163   2.008       .  S
O157        C167   1.278       .  A
O158       Cu163   2.007       .  S
O158        C168   1.278       .  A
O159       Cu164   2.002       .  S
O159        C168   1.277       .  A
O160       Cu164   2.002       .  S
O160        C167   1.277       .  A
O161       Cu164   2.004       .  S
O161        C166   1.279       .  A
O162       Cu164   2.006       .  S
O162        C165   1.278       .  A
Cu163      Cu164   2.373       .  S
C165        C710   1.478       .  S
C166        C661   1.479       .  S
C167        C941   1.469       .  S
C168        C770   1.472       .  S
O169       Cu177   2.002       .  S
O169        C179   1.277       .  A
O170       Cu177   2.004       .  S
O170        C180   1.278       .  A
O171       Cu177   2.003       .  S
O171        C181   1.278       .  A
O172       Cu177   2.007       .  S
O172        C182   1.278       .  A
O173       Cu178   2.004       .  S
O173        C182   1.278       .  A
O174       Cu178   2.011       .  S
O174        C181   1.278       .  A
O175       Cu178   2.007       .  S
O175        C180   1.278       .  A
O176       Cu178   2.005       .  S
O176        C179   1.278       .  A
Cu177      Cu178   2.372       .  S
C179        C630   1.473       .  S
C180        C610   1.479       .  S
C181        C970   1.479       .  S
C182        C650   1.480       .  S
O183       Cu191   2.014       .  S
O183        C193   1.279       .  A
O184       Cu191   2.013       .  S
O184        C194   1.279       .  A
O185       Cu191   1.990       .  S
O185        C195   1.276       .  A
O186       Cu191   1.996       .  S
O186        C196   1.277       .  A
O187       Cu192   2.009       .  S
O187        C196   1.279       .  A
O188       Cu192   2.006       .  S
O188        C195   1.278       .  A
O189       Cu192   2.006       .  S
O189        C194   1.278       .  A
O190       Cu192   2.003       .  S
O190        C193   1.278       .  A
Cu191      Cu192   2.372       .  S
C193        C641   1.481       .  S
C194        C681   1.481       .  S
C195        C570   1.474       .  S
C196        C581   1.476       .  S
O197       Cu205   2.000       .  S
O197        C207   1.277       .  A
O198       Cu205   2.005       .  S
O198        C208   1.277       .  A
O199       Cu205   2.008       .  S
O199        C209   1.279       .  A
O200       Cu205   2.008       .  S
O200        C210   1.278       .  A
O201       Cu206   2.002       .  S
O201        C210   1.278       .  A
O202       Cu206   2.006       .  S
O202        C209   1.278       .  A
O203       Cu206   2.009       .  S
O203        C208   1.278       .  A
O204       Cu206   2.008       .  S
O204        C207   1.278       .  A
Cu205      Cu206   2.373       .  S
C207        C621   1.469       .  S
C208        C730   1.472       .  S
C209       C1150   1.480       .  S
C210        C541   1.479       .  S
O211       Cu219   1.997       .  S
O211        C221   1.277       .  A
O212       Cu219   2.007       .  S
O212        C222   1.278       .  A
O213       Cu219   2.005       .  S
O213        C223   1.278       .  A
O214       Cu219   2.009       .  S
O214        C224   1.277       .  A
O215       Cu220   2.009       .  S
O215        C224   1.278       .  A
O216       Cu220   2.007       .  S
O216        C223   1.278       .  A
O217       Cu220   2.000       .  S
O217        C222   1.277       .  A
O218       Cu220   2.007       .  S
O218        C221   1.278       .  A
Cu219      Cu220   2.372       .  S
C221        C501   1.477       .  S
C222        C550   1.478       .  S
C223        C530   1.479       .  S
C224        C781   1.472       .  S
O225       Cu233   2.013       .  S
O225        C235   1.279       .  A
O226       Cu233   2.006       .  S
O226        C236   1.278       .  A
O227       Cu233   2.009       .  S
O227        C237   1.278       .  A
O228       Cu233   2.010       .  S
O228        C238   1.279       .  A
O229       Cu234   2.008       .  S
O229        C238   1.278       .  A
O230       Cu234   2.006       .  S
O230        C237   1.277       .  A
O231       Cu234   2.003       .  S
O231        C236   1.278       .  A
O232       Cu234   1.998       .  S
O232        C235   1.277       .  A
Cu233      Cu234   2.372       .  S
C235        C490   1.479       .  S
C236        C850   1.478       .  S
C237        C990   1.472       .  S
C238        C590   1.481       .  S
O239       Cu247   2.003       .  S
O239        C249   1.278       .  A
O240       Cu247   2.013       .  S
O240        C250   1.279       .  A
O241       Cu247   2.009       .  S
O241        C251   1.278       .  A
O242       Cu247   2.011       .  S
O242        C252   1.278       .  A
O243       Cu248   2.004       .  S
O243        C252   1.277       .  A
O244       Cu248   2.001       .  S
O244        C251   1.278       .  A
O245       Cu248   1.997       .  S
O245        C250   1.277       .  A
O246       Cu248   2.001       .  S
O246        C249   1.278       .  A
Cu247      Cu248   2.372       .  S
C249        C461   1.477       .  S
C250        C481   1.479       .  S
C251        C521   1.479       .  S
C252       C1230   1.472       .  S
O253       Cu261   2.003       .  S
O253        C263   1.278       .  A
O254       Cu261   2.007       .  S
O254        C264   1.278       .  A
O255       Cu261   2.011       .  S
O255        C265   1.279       .  A
O256       Cu261   2.010       .  S
O256        C266   1.278       .  A
O257       Cu262   2.002       .  S
O257        C266   1.277       .  A
O258       Cu262   2.007       .  S
O258        C265   1.278       .  A
O259       Cu262   2.005       .  S
O259        C264   1.278       .  A
O260       Cu262   2.006       .  S
O260        C263   1.278       .  A
Cu261      Cu262   2.372       .  S
C263        C450   1.479       .  S
C264        C750   1.479       .  S
C265       C1170   1.477       .  S
C266        C421   1.472       .  S
O267       Cu275   2.006       .  S
O267        C277   1.278       .  A
O268       Cu275   2.003       .  S
O268        C278   1.278       .  A
O269       Cu275   2.003       .  S
O269        C279   1.278       .  A
O270       Cu275   2.004       .  S
O270        C280   1.278       .  A
O271       Cu276   2.001       .  S
O271        C280   1.278       .  A
O272       Cu276   2.003       .  S
O272        C279   1.278       .  A
O273       Cu276   2.005       .  S
O273        C278   1.278       .  A
O274       Cu276   2.008       .  S
O274        C277   1.278       .  A
Cu275      Cu276   2.372       .  S
C277       C1110   1.479       .  S
C278        C401   1.478       .  S
C279        C441   1.478       .  S
C280        C510   1.477       .  S
O281       Cu289   2.002       .  S
O281        C291   1.277       .  A
O282       Cu289   2.008       .  S
O282        C292   1.279       .  A
O283       Cu289   1.998       .  S
O283        C293   1.277       .  A
O284       Cu289   2.003       .  S
O284        C294   1.277       .  A
O285       Cu290   2.003       .  S
O285        C294   1.278       .  A
O286       Cu290   2.012       .  S
O286        C293   1.279       .  A
O287       Cu290   2.008       .  S
O287        C292   1.278       .  A
O288       Cu290   2.005       .  S
O288        C291   1.277       .  A
Cu289      Cu290   2.372       .  S
C291        C430   1.471       .  S
C292        C601   1.480       .  S
C293        C670   1.478       .  S
C294        C381   1.478       .  S
O295       Cu303   2.001       .  S
O295        C305   1.278       .  A
O296       Cu303   1.997       .  S
O296        C306   1.277       .  A
O297       Cu303   1.996       .  S
O297        C307   1.276       .  A
O298       Cu303   2.000       .  S
O298        C308   1.278       .  A
O299       Cu304   2.009       .  S
O299        C308   1.278       .  A
O300       Cu304   2.006       .  S
O300        C307   1.277       .  A
O301       Cu304   2.014       .  S
O301        C306   1.279       .  A
O302       Cu304   2.003       .  S
O302        C305   1.278       .  A
Cu303      Cu304   2.373       .  S
C305        C361   1.477       .  S
C306        C470   1.478       .  S
C307        C881   1.466       .  S
C308        C410   1.479       .  S
O309       Cu317   2.000       .  S
O309        C319   1.277       .  A
O310       Cu317   1.998       .  S
O310        C320   1.277       .  A
O311       Cu317   2.002       .  S
O311        C321   1.278       .  A
O312       Cu317   2.001       .  S
O312        C322   1.277       .  A
O313       Cu318   2.006       .  S
O313        C322   1.278       .  A
O314       Cu318   2.010       .  S
O314        C321   1.279       .  A
O315       Cu318   2.005       .  S
O315        C320   1.278       .  A
O316       Cu318   2.008       .  S
O316        C319   1.278       .  A
Cu317      Cu318   2.372       .  S
C319        C341   1.479       .  S
C320        C561   1.476       .  S
C321       C1030   1.479       .  S
C322        C390   1.478       .  S
O323       Cu331   2.006       .  S
O323        C333   1.278       .  A
O324       Cu331   2.000       .  S
O324        C334   1.278       .  A
O325       Cu331   2.007       .  S
O325        C335   1.278       .  A
O326       Cu331   2.006       .  S
O326        C336   1.278       .  A
O327       Cu332   2.010       .  S
O327        C336   1.278       .  A
O328       Cu332   2.013       .  S
O328        C335   1.278       .  A
O329       Cu332   2.009       .  S
O329        C334   1.278       .  A
O330       Cu332   2.000       .  S
O330        C333   1.277       .  A
Cu331      Cu332   2.372       .  S
C333        C370   1.478       .  S
C334       C1010   1.478       .  S
C335        C821   1.475       .  S
C336        C350   1.481       .  S
C337        C338   1.405       .  A
C337        C342   1.397       .  A
C337        H347   1.083       .  S
C338        C343   1.486       .  S
C338        C339   1.406       .  A
C339        C340   1.397       .  A
C339        H344   1.083       .  S
C340        C341   1.405       .  A
C340        H345   1.083       .  S
C341        C342   1.405       .  A
C342        H346   1.084       .  S
C343        C348   1.406       .  A
C343        C352   1.406       .  A
C348        C349   1.398       .  A
C348        H353   1.083       .  S
C349        C350   1.405       .  A
C349        H354   1.083       .  S
C350        C351   1.405       .  A
C351        C352   1.396       .  A
C351        H355   1.083       .  S
C352        H356   1.083       .  S
C357        C358   1.405       .  A
C357        C362   1.395       .  A
C357        H367   1.083       .  S
C358        C363   1.483       .  S
C358        C359   1.406       .  A
C359        C360   1.397       .  A
C359        H364   1.083       .  S
C360        C361   1.405       .  A
C360        H365   1.083       .  S
C361        C362   1.405       .  A
C362        H366   1.083       .  S
C363        C368   1.405       .  A
C363        C372   1.406       .  A
C368        C369   1.395       .  A
C368        H373   1.083       .  S
C369        C370   1.405       .  A
C369        H374   1.083       .  S
C370        C371   1.405       .  A
C371        C372   1.397       .  A
C371        H375   1.083       .  S
C372        H376   1.083       .  S
C377        C378   1.405       .  A
C377        C382   1.394       .  A
C377        H387   1.083   1_455  S
C378        C383   1.484   1_455  S
C378        C379   1.406       .  A
C379        C380   1.398       .  A
C379        H384   1.083       .  S
C380        C381   1.406       .  A
C380        H385   1.083       .  S
C381        C382   1.404       .  A
C382        H386   1.083       .  S
C383        C388   1.405       .  A
C383        C392   1.406       .  A
C388        C389   1.396       .  A
C388        H393   1.083       .  S
C389        C390   1.405       .  A
C389        H394   1.083       .  S
C390        C391   1.405       .  A
C391        C392   1.396       .  A
C391        H395   1.083       .  S
C392        H396   1.083       .  S
C397        C398   1.407       .  A
C397        C402   1.397       .  A
C397        H407   1.083       .  S
C398        C403   1.487   1_455  S
C398        C399   1.406       .  A
C399        C400   1.396       .  A
C399        H404   1.083   1_455  S
C400        C401   1.404       .  A
C400        H405   1.083       .  S
C401        C402   1.405       .  A
C402        H406   1.083       .  S
C403        C408   1.407       .  A
C403        C412   1.406       .  A
C408        C409   1.398       .  A
C408        H413   1.083       .  S
C409        C410   1.405       .  A
C409        H414   1.083       .  S
C410        C411   1.404       .  A
C411        C412   1.395       .  A
C411        H415   1.083       .  S
C412        H416   1.083       .  S
C417        C418   1.409       .  A
C417        C422   1.397       .  A
C417        H427   1.082       .  S
C418        C423   1.491       .  S
C418        C419   1.408       .  A
C419        C420   1.396       .  A
C419        H424   1.082       .  S
C420        C421   1.403       .  A
C420        H425   1.083       .  S
C421        C422   1.401       .  A
C422        H426   1.083       .  S
C423        C428   1.408       .  A
C423        C432   1.410       .  A
C428        C429   1.395       .  A
C428        H433   1.082       .  S
C429        C430   1.401       .  A
C429        H434   1.083       .  S
C430        C431   1.402       .  A
C431        C432   1.398       .  A
C431        H435   1.083       .  S
C432        H436   1.082       .  S
C437        C438   1.406       .  A
C437        C442   1.397       .  A
C437        H447   1.083       .  S
C438        C443   1.484       .  S
C438        C439   1.405       .  A
C439        C440   1.396       .  A
C439        H444   1.083       .  S
C440        C441   1.405       .  A
C440        H445   1.083       .  S
C441        C442   1.405       .  A
C442        H446   1.083       .  S
C443        C448   1.406       .  A
C443        C452   1.406       .  A
C448        C449   1.397       .  A
C448        H453   1.083       .  S
C449        C450   1.405       .  A
C449        H454   1.083       .  S
C450        C451   1.405       .  A
C451        C452   1.395       .  A
C451        H455   1.083       .  S
C452        H456   1.083       .  S
C457        C458   1.404       .  A
C457        C462   1.396       .  A
C457        H467   1.083       .  S
C458        C463   1.478       .  S
C458        C459   1.404       .  A
C459        C460   1.395       .  A
C459        H464   1.083       .  S
C460        C461   1.405       .  A
C460        H465   1.083       .  S
C461        C462   1.405       .  A
C462        H466   1.083       .  S
C463        C468   1.404       .  A
C463        C472   1.403       .  A
C468        C469   1.397       .  A
C468        H473   1.083       .  S
C469        C470   1.405       .  A
C469        H474   1.083       .  S
C470        C471   1.406       .  A
C471        C472   1.395       .  A
C471        H475   1.083       .  S
C472        H476   1.083       .  S
C477        C478   1.407       .  A
C477        C482   1.397       .  A
C477        H487   1.083   1_556  S
C478        C483   1.485   1_556  S
C478        C479   1.405       .  A
C479        C480   1.396       .  A
C479        H484   1.083       .  S
C480        C481   1.406       .  A
C480        H485   1.083       .  S
C481        C482   1.404       .  A
C482        H486   1.083       .  S
C483        C488   1.404       .  A
C483        C492   1.407       .  A
C488        C489   1.396       .  A
C488        H493   1.083       .  S
C489        C490   1.406       .  A
C489        H494   1.083       .  S
C490        C491   1.405       .  A
C491        C492   1.398       .  A
C491        H495   1.083       .  S
C492        H496   1.083       .  S
C497        C498   1.403       .  A
C497        C502   1.396       .  A
C497        H507   1.083       .  S
C498        C503   1.477       .  S
C498        C499   1.404       .  A
C499        C500   1.396       .  A
C499        H504   1.083       .  S
C500        C501   1.405       .  A
C500        H505   1.083       .  S
C501        C502   1.406       .  A
C502        H506   1.083       .  S
C503        C508   1.404       .  A
C503        C512   1.403       .  A
C508        C509   1.396       .  A
C508        H513   1.083       .  S
C509        C510   1.405       .  A
C509        H514   1.083       .  S
C510        C511   1.406       .  A
C511        C512   1.395       .  A
C511        H515   1.083       .  S
C512        H516   1.083       .  S
C517        C518   1.404       .  A
C517        C522   1.395       .  A
C517        H527   1.083       .  S
C518        C523   1.481   1_655  S
C518        C519   1.405       .  A
C519        C520   1.398       .  A
C519        H524   1.083       .  S
C520        C521   1.406       .  A
C520        H525   1.083       .  S
C521        C522   1.406       .  A
C522        H526   1.083       .  S
C523        C528   1.405       .  A
C523        C532   1.404       .  A
C528        C529   1.398       .  A
C528        H533   1.083       .  S
C529        C530   1.406       .  A
C529        H534   1.083       .  S
C530        C531   1.405       .  A
C531        C532   1.395       .  A
C531        H535   1.083       .  S
C532        H536   1.083   1_455  S
C537        C538   1.405       .  A
C537        C542   1.397       .  A
C537        H547   1.083       .  S
C538        C543   1.482       .  S
C538        C539   1.405       .  A
C539        C540   1.395       .  A
C539        H544   1.083       .  S
C540        C541   1.405       .  A
C540        H545   1.083       .  S
C541        C542   1.405       .  A
C542        H546   1.083       .  S
C543        C548   1.405       .  A
C543        C552   1.405   1_565  A
C548        C549   1.396   1_565  A
C548        H553   1.083       .  S
C549        C550   1.405       .  A
C549        H554   1.083       .  S
C550        C551   1.406       .  A
C551        C552   1.396       .  A
C551        H555   1.083       .  S
C552        H556   1.083       .  S
C557        C558   1.404       .  A
C557        C562   1.396       .  A
C557        H567   1.083       .  S
C558        C563   1.476       .  S
C558        C559   1.403       .  A
C559        C560   1.393       .  A
C559        H564   1.083       .  S
C560        C561   1.405       .  A
C560        H565   1.083       .  S
C561        C562   1.405       .  A
C562        H566   1.083       .  S
C563        C568   1.403       .  A
C563        C572   1.404       .  A
C568        C569   1.394       .  A
C568        H573   1.084       .  S
C569        C570   1.406       .  A
C569        H574   1.083       .  S
C570        C571   1.404       .  A
C571        C572   1.395       .  A
C571        H575   1.083       .  S
C572        H576   1.083       .  S
C577        C578   1.404       .  A
C577        C582   1.395       .  A
C577        H587   1.084       .  S
C578        C583   1.481       .  S
C578        C579   1.405       .  A
C579        C580   1.398       .  A
C579        H584   1.083       .  S
C580        C581   1.404       .  A
C580        H585   1.083       .  S
C581        C582   1.405       .  A
C582        H586   1.083       .  S
C583        C588   1.404       .  A
C583        C592   1.404   1_565  A
C588        C589   1.397   1_565  A
C588        H593   1.084       .  S
C589        C590   1.406       .  A
C589        H594   1.083       .  S
C590        C591   1.406       .  A
C591        C592   1.398       .  A
C591        H595   1.083       .  S
C592        H596   1.083       .  S
C597        C598   1.406       .  A
C597        C602   1.398       .  A
C597        H607   1.083       .  S
C598        C603   1.485       .  S
C598        C599   1.405       .  A
C599        C600   1.397       .  A
C599        H604   1.083       .  S
C600        C601   1.405       .  A
C600        H605   1.083       .  S
C601        C602   1.406       .  A
C602        H606   1.083       .  S
C603        C608   1.406       .  A
C603        C612   1.405       .  A
C608        C609   1.398       .  A
C608        H613   1.083       .  S
C609        C610   1.405       .  A
C609        H614   1.083       .  S
C610        C611   1.405       .  A
C611        C612   1.396       .  A
C611        H615   1.083       .  S
C612        H616   1.083       .  S
C617        C618   1.407       .  A
C617        C622   1.395       .  A
C617        H627   1.083       .  S
C618        C623   1.487   1_556  S
C618        C619   1.408       .  A
C619        C620   1.398       .  A
C619        H624   1.083   1_556  S
C620        C621   1.401       .  A
C620        H625   1.083       .  S
C621        C622   1.401       .  A
C622        H626   1.083       .  S
C623        C628   1.408       .  A
C623        C632   1.407       .  A
C628        C629   1.397       .  A
C628        H633   1.083       .  S
C629        C630   1.403       .  A
C629        H634   1.083       .  S
C630        C631   1.403       .  A
C631        C632   1.396       .  A
C631        H635   1.083       .  S
C632        H636   1.083       .  S
C637        C638   1.406       .  A
C637        C642   1.398       .  A
C637        H647   1.083       .  S
C638        C643   1.484   1_655  S
C638        C639   1.405       .  A
C639        C640   1.397       .  A
C639        H644   1.083       .  S
C640        C641   1.406       .  A
C640        H645   1.083       .  S
C641        C642   1.405       .  A
C642        H646   1.083       .  S
C643        C648   1.406       .  A
C643        C652   1.405       .  A
C648        C649   1.399       .  A
C648        H653   1.083       .  S
C649        C650   1.406       .  A
C649        H654   1.083       .  S
C650        C651   1.405       .  A
C651        C652   1.396       .  A
C651        H655   1.083       .  S
C652        H656   1.083   1_455  S
C657        C658   1.404       .  A
C657        C662   1.393       .  A
C657        H667   1.083       .  S
C658        C663   1.482       .  S
C658        C659   1.406       .  A
C659        C660   1.400       .  A
C659        H664   1.082       .  S
C660        C661   1.407       .  A
C660        H665   1.083       .  S
C661        C662   1.404       .  A
C662        H666   1.082       .  S
C663        C668   1.406       .  A
C663        C672   1.404       .  A
C668        C669   1.397       .  A
C668        H673   1.083       .  S
C669        C670   1.404       .  A
C669        H674   1.083       .  S
C670        C671   1.406       .  A
C671        C672   1.396       .  A
C671        H675   1.083       .  S
C672        H676   1.083       .  S
C677        C678   1.405       .  A
C677        C682   1.398       .  A
C677        H687   1.083       .  S
C678        C683   1.483       .  S
C678        C679   1.405       .  A
C679        C680   1.397       .  A
C679        H684   1.083       .  S
C680        C681   1.405       .  A
C680        H685   1.083       .  S
C681        C682   1.407       .  A
C682        H686   1.083       .  S
C683        C688   1.406       .  A
C683        C692   1.404       .  A
C688        C689   1.399       .  A
C688        H693   1.083       .  S
C689        C690   1.406       .  A
C689        H694   1.083       .  S
C690        C691   1.405       .  A
C691        C692   1.395       .  A
C691        H695   1.083       .  S
C692        H696   1.083       .  S
C697        C698   1.406       .  A
C697        C702   1.396       .  A
C697        H707   1.083       .  S
C698        C703   1.484       .  S
C698        C699   1.405       .  A
C699        C700   1.396       .  A
C699        H704   1.083       .  S
C700        C701   1.405       .  A
C700        H705   1.083       .  S
C701        C702   1.405       .  A
C702        H706   1.083       .  S
C703        C708   1.405       .  A
C703        C712   1.406       .  A
C708        C709   1.394       .  A
C708        H713   1.083       .  S
C709        C710   1.404       .  A
C709        H714   1.083       .  S
C710        C711   1.406       .  A
C711        C712   1.399       .  A
C711        H715   1.083       .  S
C712        H716   1.083       .  S
C717        C718   1.410       .  A
C717        C722   1.396       .  A
C717        H727   1.082       .  S
C718        C723   1.495       .  S
C718        C719   1.410       .  A
C719        C720   1.397       .  A
C719        H724   1.082       .  S
C720        C721   1.401       .  A
C720        H725   1.084       .  S
C721        C722   1.400       .  A
C722        H726   1.083       .  S
C723        C728   1.410       .  A
C723        C732   1.410       .  A
C728        C729   1.396       .  A
C728        H733   1.082       .  S
C729        C730   1.400       .  A
C729        H734   1.083       .  S
C730        C731   1.402       .  A
C731        C732   1.398       .  A
C731        H735   1.083       .  S
C732        H736   1.082       .  S
C737        C738   1.405       .  A
C737        C742   1.398       .  A
C737        H747   1.083       .  S
C738        C743   1.483       .  S
C738        C739   1.404       .  A
C739        C740   1.396       .  A
C739        H744   1.083       .  S
C740        C741   1.406       .  A
C740        H745   1.083       .  S
C741        C742   1.406       .  A
C742        H746   1.083       .  S
C743        C748   1.404       .  A
C743        C752   1.406       .  A
C748        C749   1.397       .  A
C748        H753   1.083       .  S
C749        C750   1.405       .  A
C749        H754   1.083       .  S
C750        C751   1.405       .  A
C751        C752   1.398       .  A
C751        H755   1.083       .  S
C752        H756   1.083       .  S
C757        C758   1.410       .  A
C757        C762   1.397       .  A
C757        H767   1.082       .  S
C758        C763   1.496       .  S
C758        C759   1.410       .  A
C759        C760   1.396       .  A
C759        H764   1.081       .  S
C760        C761   1.402       .  A
C760        H765   1.084       .  S
C761        C762   1.402       .  A
C762        H766   1.082       .  S
C763        C768   1.410       .  A
C763        C772   1.411       .  A
C768        C769   1.395       .  A
C768        H773   1.081       .  S
C769        C770   1.401       .  A
C769        H774   1.084       .  S
C770        C771   1.401       .  A
C771        C772   1.398       .  A
C771        H775   1.083       .  S
C772        H776   1.082       .  S
C777        C778   1.410       .  A
C777        C782   1.397       .  A
C777        H787   1.082       .  S
C778        C783   1.498       .  S
C778        C779   1.411       .  A
C779        C780   1.398       .  A
C779        H784   1.082       .  S
C780        C781   1.401       .  A
C780        H785   1.084       .  S
C781        C782   1.401       .  A
C782        H786   1.083       .  S
C783        C788   1.411       .  A
C783        C792   1.410       .  A
C788        C789   1.398       .  A
C788        H793   1.082       .  S
C789        C790   1.402       .  A
C789        H794   1.084       .  S
C790        C791   1.402       .  A
C791        C792   1.397       .  A
C791        H795   1.083       .  S
C792        H796   1.082       .  S
C797        C798   1.406       .  A
C797        C802   1.397       .  A
C797        H807   1.083       .  S
C798        C803   1.487       .  S
C798        C799   1.406       .  A
C799        C800   1.399       .  A
C799        H804   1.083       .  S
C800        C801   1.406       .  A
C800        H805   1.083       .  S
C801        C802   1.405       .  A
C802        H806   1.083       .  S
C803        C808   1.405   1_565  A
C803        C812   1.406       .  A
C808        C809   1.398       .  A
C808        H813   1.083       .  S
C809        C810   1.406       .  A
C809        H814   1.083       .  S
C810        C811   1.406       .  A
C811        C812   1.398   1_545  A
C811        H815   1.083       .  S
C812        H816   1.083       .  S
C817        C818   1.412       .  A
C817        C822   1.399       .  A
C817        H827   1.080       .  S
C818        C823   1.501       .  S
C818        C819   1.412       .  A
C819        C820   1.398       .  A
C819        H824   1.080       .  S
C820        C821   1.401       .  A
C820        H825   1.083       .  S
C821        C822   1.401       .  A
C822        H826   1.083       .  S
C823        C828   1.412       .  A
C823        C832   1.412       .  A
C828        C829   1.398       .  A
C828        H833   1.080       .  S
C829        C830   1.401       .  A
C829        H834   1.083       .  S
C830        C831   1.401       .  A
C831        C832   1.398       .  A
C831        H835   1.083       .  S
C832        H836   1.080       .  S
C837        C838   1.405       .  A
C837        C842   1.397       .  A
C837        H847   1.083       .  S
C838        C843   1.480       .  S
C838        C839   1.404       .  A
C839        C840   1.396       .  A
C839        H844   1.083       .  S
C840        C841   1.405       .  A
C840        H845   1.083       .  S
C841        C842   1.405       .  A
C842        H846   1.083       .  S
C843        C848   1.404       .  A
C843        C852   1.404       .  A
C848        C849   1.397       .  A
C848        H853   1.083       .  S
C849        C850   1.406       .  A
C849        H854   1.083       .  S
C850        C851   1.406       .  A
C851        C852   1.396       .  A
C851        H855   1.083       .  S
C852        H856   1.083       .  S
C857        C858   1.405       .  A
C857        C862   1.396   1_565  A
C857        H867   1.084       .  S
C858        C863   1.479       .  S
C858        C859   1.404   1_565  A
C859        C860   1.397       .  A
C859        H864   1.083       .  S
C860        C861   1.406       .  A
C860        H865   1.083       .  S
C861        C862   1.405       .  A
C862        H866   1.083       .  S
C863        C868   1.405       .  A
C863        C872   1.403       .  A
C868        C869   1.397       .  A
C868        H873   1.083       .  S
C869        C870   1.405       .  A
C869        H874   1.083       .  S
C870        C871   1.406       .  A
C871        C872   1.395       .  A
C871        H875   1.083       .  S
C872        H876   1.083       .  S
C877        C878   1.407       .  A
C877        C882   1.394       .  A
C877        H887   1.083       .  S
C878        C883   1.487       .  S
C878        C879   1.409       .  A
C879        C880   1.397       .  A
C879        H884   1.082       .  S
C880        C881   1.401       .  A
C880        H885   1.084       .  S
C881        C882   1.400       .  A
C882        H886   1.082       .  S
C883        C888   1.408       .  A
C883        C892   1.407       .  A
C888        C889   1.395       .  A
C888        H893   1.082       .  S
C889        C890   1.401       .  A
C889        H894   1.085       .  S
C890        C891   1.402       .  A
C891        C892   1.396       .  A
C891        H895   1.082       .  S
C892        H896   1.084       .  S
C897        C898   1.409       .  A
C897        C902   1.395       .  A
C897        H907   1.081       .  S
C898        C903   1.495       .  S
C898        C899   1.410       .  A
C899        C900   1.399       .  A
C899        H904   1.081       .  S
C900        C901   1.402       .  A
C900        H905   1.083       .  S
C901        C902   1.401       .  A
C902        H906   1.083       .  S
C903        C908   1.410       .  A
C903        C912   1.410       .  A
C908        C909   1.397       .  A
C908        H913   1.082       .  S
C909        C910   1.402       .  A
C909        H914   1.083       .  S
C910        C911   1.403       .  A
C911        C912   1.397       .  A
C911        H915   1.083       .  S
C912        H916   1.081       .  S
C917        C918   1.403       .  A
C917        C922   1.396       .  A
C917        H927   1.083       .  S
C918        C923   1.480       .  S
C918        C919   1.405       .  A
C919        C920   1.396       .  A
C919        H924   1.083       .  S
C920        C921   1.405       .  A
C920        H925   1.083       .  S
C921        C922   1.406       .  A
C922        H926   1.083       .  S
C923        C928   1.405       .  A
C923        C932   1.404       .  A
C928        C929   1.396       .  A
C928        H933   1.084       .  S
C929        C930   1.405       .  A
C929        H934   1.083       .  S
C930        C931   1.405       .  A
C931        C932   1.395       .  A
C931        H935   1.083       .  S
C932        H936   1.083       .  S
C937        C938   1.411       .  A
C937        C942   1.398       .  A
C937        H947   1.081       .  S
C938        C943   1.497       .  S
C938        C939   1.410       .  A
C939        C940   1.397       .  A
C939        H944   1.081       .  S
C940        C941   1.400       .  A
C940        H945   1.083       .  S
C941        C942   1.400       .  A
C942        H946   1.083       .  S
C943        C948   1.410       .  A
C943        C952   1.411       .  A
C948        C949   1.398       .  A
C948        H953   1.082       .  S
C949        C950   1.402       .  A
C949        H954   1.083       .  S
C950        C951   1.402       .  A
C951        C952   1.398       .  A
C951        H955   1.083       .  S
C952        H956   1.081       .  S
C957        C958   1.406       .  A
C957        C962   1.397       .  A
C957        H967   1.083       .  S
C958        C963   1.485       .  S
C958        C959   1.406       .  A
C959        C960   1.397       .  A
C959        H964   1.082       .  S
C960        C961   1.406       .  A
C960        H965   1.083       .  S
C961        C962   1.405       .  A
C962        H966   1.083       .  S
C963        C968   1.405       .  A
C963        C972   1.406       .  A
C968        C969   1.395       .  A
C968        H973   1.083       .  S
C969        C970   1.405       .  A
C969        H974   1.083       .  S
C970        C971   1.405       .  A
C971        C972   1.399       .  A
C971        H975   1.083       .  S
C972        H976   1.083       .  S
C977        C978   1.410       .  A
C977        C982   1.398       .  A
C977        H987   1.081       .  S
C978        C983   1.495       .  S
C978        C979   1.410       .  A
C979        C980   1.397       .  A
C979        H984   1.082       .  S
C980        C981   1.401       .  A
C980        H985   1.083       .  S
C981        C982   1.402       .  A
C982        H986   1.083       .  S
C983        C988   1.410       .  A
C983        C992   1.410       .  A
C988        C989   1.399       .  A
C988        H993   1.082       .  S
C989        C990   1.402       .  A
C989        H994   1.083       .  S
C990        C991   1.401       .  A
C991        C992   1.397       .  A
C991        H995   1.083       .  S
C992        H996   1.081       .  S
C997        C998   1.405       .  A
C997       C1002   1.395       .  A
C997       H1007   1.083       .  S
C998       C1003   1.480       .  S
C998        C999   1.404       .  A
C999       C1000   1.398       .  A
C999       H1004   1.083       .  S
C1000      C1001   1.407       .  A
C1000      H1005   1.083       .  S
C1001      C1002   1.404       .  A
C1002      H1006   1.083       .  S
C1003      C1008   1.404       .  A
C1003      C1012   1.405       .  A
C1008      C1009   1.394       .  A
C1008      H1013   1.083       .  S
C1009      C1010   1.405       .  A
C1009      H1014   1.083       .  S
C1010      C1011   1.406       .  A
C1011      C1012   1.398       .  A
C1011      H1015   1.083       .  S
C1012      H1016   1.083       .  S
C1017      C1018   1.406       .  A
C1017      C1022   1.398       .  A
C1017      H1027   1.083       .  S
C1018      C1023   1.483       .  S
C1018      C1019   1.404       .  A
C1019      C1020   1.395       .  A
C1019      H1024   1.083       .  S
C1020      C1021   1.405       .  A
C1020      H1025   1.083       .  S
C1021      C1022   1.405       .  A
C1022      H1026   1.083       .  S
C1023      C1028   1.404       .  A
C1023      C1032   1.406       .  A
C1028      C1029   1.396       .  A
C1028      H1033   1.083       .  S
C1029      C1030   1.406       .  A
C1029      H1034   1.083       .  S
C1030      C1031   1.405       .  A
C1031      C1032   1.398       .  A
C1031      H1035   1.083       .  S
C1032      H1036   1.083       .  S
C1037      C1038   1.403       .  A
C1037      C1042   1.396       .  A
C1037      H1047   1.083       .  S
C1038      C1043   1.478       .  S
C1038      C1039   1.404       .  A
C1039      C1040   1.396       .  A
C1039      H1044   1.082       .  S
C1040      C1041   1.405       .  A
C1040      H1045   1.083       .  S
C1041      C1042   1.406       .  A
C1042      H1046   1.082       .  S
C1043      C1048   1.404       .  A
C1043      C1052   1.403       .  A
C1048      C1049   1.396       .  A
C1048      H1053   1.082       .  S
C1049      C1050   1.405       .  A
C1049      H1054   1.083       .  S
C1050      C1051   1.406       .  A
C1051      C1052   1.396       .  A
C1051      H1055   1.083       .  S
C1052      H1056   1.083       .  S
C1057      C1058   1.406       .  A
C1057      C1062   1.396       .  A
C1057      H1067   1.083       .  S
C1058      C1063   1.486       .  S
C1058      C1059   1.406       .  A
C1059      C1060   1.399       .  A
C1059      H1064   1.083       .  S
C1060      C1061   1.406       .  A
C1060      H1065   1.083       .  S
C1061      C1062   1.405       .  A
C1062      H1066   1.083       .  S
C1063      C1068   1.406       .  A
C1063      C1072   1.406       .  A
C1068      C1069   1.397       .  A
C1068      H1073   1.083       .  S
C1069      C1070   1.405       .  A
C1069      H1074   1.083       .  S
C1070      C1071   1.406       .  A
C1071      C1072   1.398       .  A
C1071      H1075   1.083       .  S
C1072      H1076   1.083       .  S
C1077      C1078   1.408       .  A
C1077      C1082   1.395       .  A
C1077      H1087   1.082       .  S
C1078      C1083   1.492       .  S
C1078      C1079   1.409       .  A
C1079      C1080   1.399       .  A
C1079      H1084   1.083       .  S
C1080      C1081   1.402       .  A
C1080      H1085   1.083       .  S
C1081      C1082   1.401       .  A
C1082      H1086   1.084       .  S
C1083      C1088   1.408       .  A
C1083      C1092   1.409       .  A
C1088      C1089   1.397       .  A
C1088      H1093   1.083       .  S
C1089      C1090   1.403       .  A
C1089      H1094   1.082       .  S
C1090      C1091   1.404       .  A
C1091      C1092   1.399       .  A
C1091      H1095   1.084       .  S
C1092      H1096   1.082       .  S
C1097      C1098   1.406       .  A
C1097      C1102   1.397       .  A
C1097      H1107   1.083       .  S
C1098      C1103   1.484       .  S
C1098      C1099   1.404       .  A
C1099      C1100   1.396       .  A
C1099      H1104   1.083       .  S
C1100      C1101   1.407       .  A
C1100      H1105   1.083       .  S
C1101      C1102   1.404       .  A
C1102      H1106   1.083       .  S
C1103      C1108   1.406       .  A
C1103      C1112   1.405       .  A
C1108      C1109   1.398       .  A
C1108      H1113   1.083       .  S
C1109      C1110   1.406       .  A
C1109      H1114   1.084       .  S
C1110      C1111   1.405       .  A
C1111      C1112   1.396       .  A
C1111      H1115   1.083       .  S
C1112      H1116   1.083       .  S
C1117      C1118   1.405       .  A
C1117      C1122   1.400       .  A
C1117      H1127   1.083       .  S
C1118      C1123   1.488       .  S
C1118      C1119   1.406       .  A
C1119      C1120   1.398       .  A
C1119      H1124   1.083       .  S
C1120      C1121   1.405       .  A
C1120      H1125   1.083       .  S
C1121      C1122   1.407       .  A
C1122      H1126   1.083       .  S
C1123      C1128   1.406       .  A
C1123      C1132   1.406       .  A
C1128      C1129   1.400       .  A
C1128      H1133   1.083       .  S
C1129      C1130   1.406       .  A
C1129      H1134   1.083       .  S
C1130      C1131   1.406       .  A
C1131      C1132   1.398       .  A
C1131      H1135   1.083       .  S
C1132      H1136   1.083       .  S
C1137      C1138   1.405       .  A
C1137      C1142   1.398       .  A
C1137      H1147   1.083       .  S
C1138      C1143   1.481       .  S
C1138      C1139   1.404       .  A
C1139      C1140   1.397       .  A
C1139      H1144   1.082       .  S
C1140      C1141   1.406       .  A
C1140      H1145   1.083       .  S
C1141      C1142   1.406       .  A
C1142      H1146   1.082       .  S
C1143      C1148   1.404       .  A
C1143      C1152   1.405       .  A
C1148      C1149   1.396       .  A
C1148      H1153   1.083       .  S
C1149      C1150   1.405       .  A
C1149      H1154   1.083       .  S
C1150      C1151   1.407       .  A
C1151      C1152   1.399       .  A
C1151      H1155   1.083       .  S
C1152      H1156   1.083       .  S
C1157      C1158   1.410       .  A
C1157      C1162   1.399       .  A
C1157      H1167   1.083       .  S
C1158      C1163   1.494       .  S
C1158      C1159   1.409       .  A
C1159      C1160   1.398       .  A
C1159      H1164   1.083       .  S
C1160      C1161   1.400       .  A
C1160      H1165   1.084       .  S
C1161      C1162   1.402       .  A
C1162      H1166   1.083       .  S
C1163      C1168   1.409       .  A
C1163      C1172   1.409       .  A
C1168      C1169   1.399       .  A
C1168      H1173   1.083       .  S
C1169      C1170   1.404       .  A
C1169      H1174   1.084       .  S
C1170      C1171   1.402       .  A
C1171      C1172   1.397       .  A
C1171      H1175   1.083       .  S
C1172      H1176   1.083       .  S
C1177      C1178   1.410       .  A
C1177      C1182   1.398       .  A
C1177      H1187   1.082   1_556  S
C1178      C1183   1.496   1_556  S
C1178      C1179   1.409       .  A
C1179      C1180   1.398       .  A
C1179      H1184   1.082       .  S
C1180      C1181   1.403       .  A
C1180      H1185   1.083       .  S
C1181      C1182   1.404       .  A
C1182      H1186   1.083       .  S
C1183      C1188   1.409       .  A
C1183      C1192   1.411       .  A
C1188      C1189   1.396       .  A
C1188      H1193   1.082       .  S
C1189      C1190   1.401       .  A
C1189      H1194   1.083       .  S
C1190      C1191   1.401       .  A
C1191      C1192   1.400       .  A
C1191      H1195   1.083       .  S
C1192      H1196   1.082       .  S
C1197      C1198   1.406       .  A
C1197      C1202   1.398       .  A
C1197      H1207   1.084       .  S
C1198      C1203   1.486       .  S
C1198      C1199   1.406       .  A
C1199      C1200   1.398       .  A
C1199      H1204   1.083       .  S
C1200      C1201   1.405       .  A
C1200      H1205   1.083       .  S
C1201      C1202   1.406       .  A
C1202      H1206   1.083       .  S
C1203      C1208   1.406       .  A
C1203      C1212   1.406       .  A
C1208      C1209   1.398       .  A
C1208      H1213   1.083       .  S
C1209      C1210   1.407       .  A
C1209      H1214   1.084       .  S
C1210      C1211   1.404       .  A
C1211      C1212   1.397       .  A
C1211      H1215   1.083       .  S
C1212      H1216   1.084       .  S
C1217      C1218   1.408       .  A
C1217      C1222   1.396       .  A
C1217      H1227   1.083       .  S
C1218      C1223   1.493       .  S
C1218      C1219   1.410       .  A
C1219      C1220   1.398       .  A
C1219      H1224   1.082       .  S
C1220      C1221   1.401       .  A
C1220      H1225   1.084       .  S
C1221      C1222   1.402       .  A
C1222      H1226   1.083       .  S
C1223      C1228   1.410       .  A
C1223      C1232   1.409       .  A
C1228      C1229   1.397       .  A
C1228      H1233   1.083       .  S
C1229      C1230   1.401       .  A
C1229      H1234   1.083       .  S
C1230      C1231   1.402       .  A
C1231      C1232   1.397       .  A
C1231      H1235   1.083       .  S
C1232      H1236   1.082       .  S
C1237      C1238   1.405       .  A
C1237      C1242   1.398       .  A
C1237      H1247   1.083       .  S
C1238      C1243   1.484       .  S
C1238      C1239   1.405       .  A
C1239      C1240   1.399       .  A
C1239      H1244   1.083       .  S
C1240      C1241   1.406       .  A
C1240      H1245   1.083       .  S
C1241      C1242   1.406       .  A
C1242      H1246   1.083       .  S
C1243      C1248   1.405       .  A
C1243      C1252   1.405       .  A
C1248      C1249   1.398       .  A
C1248      H1253   1.082       .  S
C1249      C1250   1.406       .  A
C1249      H1254   1.083       .  S
C1250      C1251   1.406       .  A
C1251      C1252   1.397       .  A
C1251      H1255   1.082       .  S
C1252      H1256   1.083       .  S
C1257      C1258   1.407       .  A
C1257      C1262   1.399       .  A
C1257      H1267   1.083       .  S
C1258      C1263   1.488   1_554  S
C1258      C1259   1.405       .  A
C1259      C1260   1.396       .  A
C1259      H1264   1.083       .  S
C1260      C1261   1.405       .  A
C1260      H1265   1.083       .  S
C1261      C1262   1.405       .  A
C1262      H1266   1.083       .  S
C1263      C1268   1.406       .  A
C1263      C1272   1.406       .  A
C1268      C1269   1.398       .  A
C1268      H1273   1.083   1_556  S
C1269      C1270   1.405       .  A
C1269      H1274   1.083       .  S
C1270      C1271   1.406       .  A
C1271      C1272   1.398       .  A
C1271      H1275   1.083       .  S
C1272      H1276   1.083       .  S
C1277      C1278   1.408       .  A
C1277      C1282   1.394       .  A
C1277      H1287   1.081       .  S
C1278      C1283   1.496       .  S
C1278      C1279   1.412       .  A
C1279      C1280   1.400       .  A
C1279      H1284   1.081       .  S
C1280      C1281   1.401       .  A
C1280      H1285   1.083       .  S
C1281      C1282   1.401       .  A
C1282      H1286   1.083       .  S
C1283      C1288   1.412       .  A
C1283      C1292   1.408       .  A
C1288      C1289   1.399       .  A
C1288      H1293   1.081       .  S
C1289      C1290   1.401       .  A
C1289      H1294   1.083       .  S
C1290      C1291   1.403       .  A
C1291      C1292   1.395       .  A
C1291      H1295   1.083       .  S
C1292      H1296   1.081       .  S
