geometry optimzed in LAMMPS
_audit_creation_date              2020-12-01 
_audit_creation_method            'lammps2cif' 
_symmetry_space_group_name_H-M    'P1' 
_symmetry_Int_Tables_number       1 
_symmetry_cell_setting            triclinic 
loop_ 
_symmetry_equiv_pos_as_xyz 
  x,y,z 
_cell_length_a                    41.85907623 
_cell_length_b                    42.133337480982334 
_cell_length_c                    39.23687926719747 
_cell_angle_alpha                 90.03744866518205 
_cell_angle_beta                  90.18790953319355 
_cell_angle_gamma                 89.24506325011058 
loop_ 
_atom_site_label 
_atom_site_type_symbol 
_atom_site_fract_x 
_atom_site_fract_y 
_atom_site_fract_z 
_atom_site_charge 
O1          O  0.40217603  0.97544931  0.70349333    -0.73600
O2          O  0.36407784  0.44773773  0.62088788    -0.74500
O3          O  0.42309852  0.45394973  0.65341280    -0.63200
O4          O  0.33638905  0.47079077  0.68276823    -0.71600
O5          O  0.33613748  0.01243833  0.64992791    -0.71100
O6          O  0.43116393  0.99800093  0.62361597    -0.62400
O7          O  0.37068763  0.99528124  0.59242516    -0.74900
O8          O  0.39851700  0.02359482  0.68171897    -0.73700
Cu9        Cu  0.38027595  0.46224938  0.66858384     1.04600
Cu10       Cu  0.38421321  0.00928396  0.63669522     1.04300
C11         C  0.40702216  0.00553935  0.70609234     0.92600
C12         C  0.36073141  0.46769988  0.59619874     0.91800
C13         C  0.44174536  0.96935288  0.62772779     0.83900
C14         C  0.32233912  0.98865067  0.66402320     0.90200
O15         O  0.46092581  0.15165857  0.86299523    -0.73600
O16         O  0.45561539  0.05893207  0.89427602    -0.74500
O17         O  0.46282709  0.11875748  0.92577499    -0.63200
O18         O  0.44739618  0.09064704  0.83203051    -0.71600
O19         O  0.49863441  0.07977320  0.82338019    -0.71100
O20         O  0.01543610  0.11550712  0.92034763    -0.62400
O21         O  0.50828734  0.05652073  0.88906113    -0.74900
O22         O  0.51225315  0.14267804  0.85313045    -0.73700
Cu23       Cu  0.45489436  0.10549415  0.87885588     1.04600
Cu24       Cu  0.51052671  0.09882148  0.87092212     1.04300
C25         C  0.48856505  0.16183008  0.85424125     0.92600
C26         C  0.48216262  0.04331360  0.89609397     0.91800
C27         C  0.49046699  0.12011662  0.93889002     0.83900
C28         C  0.46916914  0.07788718  0.81398628     0.90200
O29         O  0.17905614  0.43657639  0.65597453    -0.73600
O30         O  0.08694265  0.42137643  0.62398491    -0.74500
O31         O  0.14654570  0.43055981  0.59238481    -0.63200
O32         O  0.11888491  0.42101743  0.68731307    -0.71600
O33         O  0.10401491  0.47157386  0.69094687    -0.71100
O34         O  0.13905322  0.48279547  0.59324830    -0.62400
O35         O  0.08042268  0.47369470  0.62432851    -0.74900
O36         O  0.16586099  0.48750464  0.66050010    -0.73700
Cu37       Cu  0.13352322  0.42560260  0.63999193     1.04600
Cu38       Cu  0.12238611  0.48078493  0.64265485     1.04300
C39         C  0.18675770  0.46545417  0.66238391     0.92600
C40         C  0.06953629  0.44632177  0.61881317     0.91800
C41         C  0.14562419  0.45699332  0.57698409     0.83900
C42         C  0.10445013  0.44318114  0.70317698     0.90200
O43         O  0.00247910  0.37667075  0.81154718    -0.73600
O44         O  0.96445013  0.34296767  0.90187083    -0.74500
O45         O  0.97418518  0.40178202  0.87119847    -0.63200
O46         O  0.98746848  0.31458327  0.84005099    -0.71600
O47         O  0.03511287  0.31082875  0.86410529    -0.71100
O48         O  0.02179389  0.40336013  0.89551510    -0.62400
O49         O  0.01371308  0.34252179  0.92263248    -0.74900
O50         O  0.04957612  0.37360965  0.83683522    -0.73700
Cu51       Cu  0.98063759  0.35878234  0.85499700     1.04600
Cu52       Cu  0.03190179  0.35747045  0.88014025     1.04300
C53         C  0.03269864  0.38205468  0.81129804     0.92600
C54         C  0.98402473  0.33886846  0.92694596     0.91800
C55         C  0.99438943  0.41632672  0.88929186     0.83900
C56         C  0.01136784  0.29763602  0.84906417     0.90200
O57         O  0.03764481  0.16363126  0.15475216    -0.73600
O58         O  0.04129866  0.07141287  0.12072598    -0.74500
O59         O  0.02867840  0.13147604  0.09319358    -0.63200
O60         O  0.05726739  0.10219665  0.18356176    -0.71600
O61         O  0.00793572  0.09358158  0.20115597    -0.71100
O62         O  0.47776282  0.12546581  0.10666753    -0.62400
O63         O  0.99127402  0.06789020  0.13817329    -0.74900
O64         O  0.98817313  0.15468024  0.17147346    -0.73700
Cu65       Cu  0.04315149  0.11755274  0.13804013     1.04600
Cu66       Cu  0.98965049  0.11049757  0.15533902     1.04300
C67         C  0.01052969  0.17398813  0.16589657     0.92600
C68         C  0.01499324  0.05604950  0.12270798     0.91800
C69         C  0.99950198  0.13177026  0.08458860     0.83900
C70         C  0.03833940  0.09117545  0.20576647     0.90200
O71         O  0.17992883  0.01364314  0.35854739    -0.73600
O72         O  0.08734460  0.00279151  0.39255985    -0.74500
O73         O  0.14969315  0.99231983  0.41689806    -0.63200
O74         O  0.11591736  0.03155822  0.33333439    -0.71600
O75         O  0.11213819  0.98551834  0.30657547    -0.71100
O76         O  0.14162555  0.44548998  0.40814315    -0.62400
O77         O  0.08057382  0.45630128  0.38137091    -0.74900
O78         O  0.16595459  0.46992644  0.34573335    -0.73700
Cu79       Cu  0.13330663  0.01203626  0.37570528     1.04600
Cu80       Cu  0.12259648  0.46302099  0.36297024     1.04300
C81         C  0.19249839  0.98959783  0.34308003     0.92600
C82         C  0.07426126  0.97607089  0.38533878     0.91800
C83         C  0.14726649  0.46432037  0.43326616     0.83900
C84         C  0.10686878  0.01567388  0.30754021     0.90200
O85         O  0.32882846  0.43562157  0.37164648    -0.73600
O86         O  0.42175733  0.42497825  0.40528494    -0.74500
O87         O  0.36159479  0.43240704  0.43587988    -0.63200
O88         O  0.39077550  0.42221997  0.34057195    -0.71600
O89         O  0.39842190  0.47387920  0.33453319    -0.71100
O90         O  0.36715431  0.48465988  0.43382860    -0.62400
O91         O  0.42518573  0.47718116  0.40038760    -0.74900
O92         O  0.33777423  0.48709941  0.36753420    -0.73700
Cu93       Cu  0.37525162  0.42694239  0.38816968     1.04600
Cu94       Cu  0.38206952  0.48247552  0.38365601     1.04300
C95         C  0.31864784  0.46404572  0.36548329     0.92600
C96         C  0.43737703  0.45081172  0.40926388     0.91800
C97         C  0.36187955  0.45913784  0.45081598     0.83900
C98         C  0.40091097  0.44533488  0.32302284     0.90200
O99         O  0.47750845  0.38653750  0.18796159    -0.73600
O100        O  0.49158236  0.35474787  0.08914629    -0.74500
O101        O  0.48321510  0.41281548  0.12291079    -0.63200
O102        O  0.49269870  0.32577046  0.15483919    -0.71600
O103        O  0.44188715  0.31483183  0.14493900    -0.71100
O104        O  0.43030704  0.41008263  0.12266109    -0.62400
O105        O  0.43893375  0.35245959  0.08462098    -0.74900
O106        O  0.42695935  0.37309717  0.18189995    -0.73700
Cu107      Cu  0.48807998  0.36981682  0.13911214     1.04600
Cu108      Cu  0.43263347  0.36209901  0.13337268     1.04300
C109        C  0.44847362  0.38712372  0.19886155     0.92600
C110        C  0.46632318  0.35056871  0.07095534     0.91800
C111        C  0.45612591  0.42612471  0.11990033     0.83900
C112        C  0.47052686  0.30566017  0.15241251     0.90200
C113        C  0.39649786  0.43565111  0.26075991    -0.09800
C114        C  0.41592071  0.43747766  0.28966750     0.06400
C115        C  0.44728137  0.42463687  0.28784712    -0.03500
C116        C  0.45822855  0.40932257  0.25800936    -0.08000
C117        C  0.43804867  0.40575297  0.22964485     0.05500
C118        C  0.40713064  0.42033764  0.23103045    -0.03000
Br119      Br  0.37762644  0.42096925  0.19331981    -0.02700
H120        H  0.37227009  0.44502650  0.26177848     0.09500
H121        H  0.48209486  0.39905156  0.25755957     0.07500
Br122      Br  0.47549760  0.42608591  0.32624450    -0.03100
C123        C  0.52407143  0.98701096  0.41814414    -0.09800
C124        C  0.03562823  0.46509689  0.41553847     0.06400
C125        C  0.02439386  0.43359329  0.41064962    -0.03500
C126        C  0.99179629  0.42745175  0.41318773    -0.08000
C127        C  0.47052658  0.45178082  0.42190840     0.05500
C128        C  0.48284759  0.48053178  0.43490621    -0.03000
Br129      Br  0.46785604  0.00997084  0.45173904    -0.02700
H130        H  0.53327640  0.00993513  0.42551635     0.09500
H131        H  0.98289942  0.40454786  0.40529188     0.07500
Br132      Br  0.05128832  0.39780129  0.39903695    -0.03100
C133        C  0.23051721  0.45945240  0.33990743    -0.09800
C134        C  0.21846967  0.48919773  0.35134986     0.06400
C135        C  0.25070857  0.00785666  0.34549375    -0.03500
C136        C  0.27295494  0.50265476  0.36703609    -0.08000
C137        C  0.28441619  0.47204801  0.35815000     0.05500
C138        C  0.26284213  0.45074174  0.34336555    -0.03000
Br139      Br  0.27591309  0.40964489  0.32706343    -0.02700
H140        H  0.21447016  0.44193804  0.32952681     0.09500
H141        H  0.30005588  0.01811361  0.35313101     0.07500
Br142      Br  0.23939470  0.05192839  0.34999454    -0.03100
C143        C  0.44668994  0.47626839  0.14862428    -0.09800
C144        C  0.45678212  0.46086521  0.11892516     0.06400
C145        C  0.97860577  0.47624447  0.09725159    -0.03500
C146        C  0.99084751  0.50595214  0.10615315    -0.08000
C147        C  0.01072652  0.02388204  0.10880034     0.05500
C148        C  0.47961310  0.01164844  0.10346619    -0.03000
Br149      Br  0.44189451  0.03790241  0.09855016    -0.02700
H150        H  0.43154763  0.46402396  0.16650135     0.09500
H151        H  0.00736756  0.51756557  0.08920919     0.07500
Br152      Br  0.99396876  0.45628170  0.05639117    -0.03100
C153        C  0.46425931  0.25192353  0.17922601    -0.09800
C154        C  0.48003516  0.27178162  0.15639727     0.06400
C155        C  0.00753940  0.25988744  0.13950004    -0.03500
C156        C  0.01859031  0.22891519  0.14537612    -0.08000
C157        C  0.00266302  0.20860736  0.16766474     0.05500
C158        C  0.47531540  0.22070060  0.18512414    -0.03000
Br159      Br  0.45217193  0.19630931  0.21796954    -0.02700
H160        H  0.44361091  0.26090902  0.19304276     0.09500
H161        H  0.03884038  0.22012898  0.13078564     0.07500
Br162      Br  0.02993712  0.28397480  0.10582507    -0.03100
C163        C  0.09849403  0.06488685  0.27329416    -0.09800
C164        C  0.08935644  0.03349042  0.28005484     0.06400
C165        C  0.06106784  0.02238931  0.26448738    -0.03500
C166        C  0.04329586  0.04225673  0.24221622    -0.08000
C167        C  0.05302760  0.07341576  0.23497320     0.05500
C168        C  0.08092581  0.08457382  0.25111163    -0.03000
Br169      Br  0.09578743  0.12706766  0.24453586    -0.02700
H170        H  0.11951641  0.07439158  0.28563271     0.09500
H171        H  0.02231420  0.03292379  0.22966174     0.07500
Br172      Br  0.04462169  0.98105930  0.27406816    -0.03100
C173        C  0.99155421  0.32348107  0.02098708    -0.09800
C174        C  0.46790713  0.34399437  0.03375435     0.06400
C175        C  0.44541600  0.35749047  0.01057559    -0.03500
C176        C  0.44853282  0.35224210  0.97543081    -0.08000
C177        C  0.97365861  0.33361093  0.96256032     0.05500
C178        C  0.99422635  0.31777046  0.98593234    -0.03000
Br179      Br  0.02709738  0.28863076  0.97122319    -0.02700
H180        H  0.00827417  0.31194872  0.03834584     0.09500
H181        H  0.43285392  0.36504833  0.95797760     0.07500
Br182      Br  0.41201616  0.38637175  0.02452397    -0.03100
C183        C  0.17383063  0.47246561  0.52341420    -0.09800
C184        C  0.14937732  0.45596772  0.53959437     0.06400
C185        C  0.12933591  0.43628346  0.51982961    -0.03500
C186        C  0.13256498  0.43504457  0.48441683    -0.08000
C187        C  0.15528341  0.45347625  0.46791167     0.05500
C188        C  0.18078550  0.96775850  0.47612711    -0.03000
Br189      Br  0.21543523  0.99133208  0.45725486    -0.02700
H190        H  0.19297040  0.98131069  0.52754554     0.09500
H191        H  0.11500512  0.42229276  0.46954503     0.07500
Br192      Br  0.09447608  0.41333159  0.53920428    -0.03100
C193        C  0.05280445  0.43570953  0.73432333    -0.09800
C194        C  0.08645252  0.43360036  0.73416138     0.06400
C195        C  0.10149123  0.41440860  0.75896357    -0.03500
C196        C  0.08339138  0.39770389  0.78275131    -0.08000
C197        C  0.04965718  0.39905948  0.78289798     0.05500
C198        C  0.03443153  0.41878225  0.75830853    -0.03000
Br199      Br  0.98889893  0.42368443  0.75589436    -0.02700
H200        H  0.04067277  0.44927574  0.71467502     0.09500
H201        H  0.09612687  0.38323524  0.80119021     0.07500
Br202      Br  0.14712984  0.40955794  0.76100806    -0.03100
C203        C  0.01275514  0.14719184  0.99059715    -0.09800
C204        C  0.49192778  0.12513166  0.97624851     0.06400
C205        C  0.47056936  0.10889432  0.99793049    -0.03500
C206        C  0.47085229  0.11432490  0.03306148    -0.08000
C207        C  0.99259394  0.13524589  0.04771471     0.05500
C208        C  0.01314391  0.15245745  0.02596280    -0.03000
Br209      Br  0.04233026  0.18346987  0.04317750    -0.02700
H210        H  0.02863205  0.16041814  0.97432233     0.09500
H211        H  0.45572784  0.10015133  0.04923062     0.07500
Br212      Br  0.44264567  0.07617023  0.98186875    -0.03100
C213        C  0.01362675  0.99718512  0.91616084    -0.09800
C214        C  0.48443886  0.00903990  0.90287022     0.06400
C215        C  0.44601609  0.49248843  0.89684251    -0.03500
C216        C  0.45537028  0.46132834  0.88954590    -0.08000
C217        C  0.98432606  0.44812784  0.90222234     0.05500
C218        C  0.00165166  0.46564517  0.92647092    -0.03000
Br219      Br  0.03989505  0.45000202  0.94814477    -0.02700
H220        H  0.03012953  0.01325538  0.92839631     0.09500
H221        H  0.44066120  0.44816807  0.87187670     0.07500
Br222      Br  0.40931469  0.50940656  0.87321047    -0.03100
C223        C  0.02579511  0.20773379  0.85506273    -0.09800
C224        C  0.49491766  0.19616135  0.84799404     0.06400
C225        C  0.47133052  0.21793399  0.83704526    -0.03500
C226        C  0.47829068  0.25034628  0.83528631    -0.08000
C227        C  0.00850081  0.26236824  0.84476498     0.05500
C228        C  0.03271900  0.24026135  0.85371211    -0.03000
Br229      Br  0.07550473  0.25247002  0.86496288    -0.02700
H230        H  0.04461541  0.19145598  0.86310226     0.09500
H231        H  0.45912261  0.26638621  0.82769272     0.07500
Br232      Br  0.42924490  0.20508066  0.82385062    -0.03100
C233        C  0.33456801  0.47628521  0.50478791    -0.09800
C234        C  0.35887621  0.45902524  0.48845653     0.06400
C235        C  0.37989286  0.44005620  0.50848020    -0.03500
C236        C  0.37726049  0.43973080  0.54403598    -0.08000
C237        C  0.35414903  0.45832142  0.56056802     0.05500
C238        C  0.33204823  0.47594892  0.54050051    -0.03000
Br239      Br  0.31931736  0.02155967  0.54769710    -0.02700
H240        H  0.31768198  0.49025063  0.48980396     0.09500
H241        H  0.39523492  0.42708181  0.55895522     0.07500
Br242      Br  0.41517504  0.41681915  0.48913755    -0.03100
C243        C  0.51684759  0.42479769  0.62981183    -0.09800
C244        C  0.03537619  0.44519423  0.61058115     0.06400
C245        C  0.02046017  0.47122794  0.59391523    -0.03500
C246        C  0.99022212  0.97406647  0.59115173    -0.08000
C247        C  0.47139607  0.46162299  0.62491213     0.05500
C248        C  0.48513345  0.43250010  0.63710732    -0.03000
Br249      Br  0.46429601  0.40241176  0.66626495    -0.02700
H250        H  0.52797063  0.40457082  0.64238175     0.09500
H251        H  0.97939544  0.99461836  0.57883213     0.07500
Br252      Br  0.04301833  0.98836486  0.54783716    -0.03100
C253        C  0.23142763  0.50324475  0.65505354    -0.09800
C254        C  0.22017623  0.47492150  0.66965638     0.06400
C255        C  0.24094342  0.45715880  0.69053668    -0.03500
C256        C  0.27268905  0.46660312  0.69455978    -0.08000
C257        C  0.28500580  0.49331232  0.67731440     0.05500
C258        C  0.26420328  0.00534668  0.65081053    -0.03000
Br259      Br  0.27516369  0.04671774  0.63452140    -0.02700
H260        H  0.21550656  0.01259135  0.63536760     0.09500
H261        H  0.28826765  0.45172740  0.70997506     0.07500
Br262      Br  0.22729550  0.42002970  0.71436774    -0.03100
C263        C  0.41826500  0.05487163  0.73854368    -0.09800
C264        C  0.42319335  0.02175310  0.73571023     0.06400
C265        C  0.44609217  0.00753102  0.75781888    -0.03500
C266        C  0.46320085  0.02645248  0.78146069    -0.08000
C267        C  0.45811240  0.05962989  0.78358750     0.05500
C268        C  0.43523521  0.07347703  0.76166029    -0.03000
Br269      Br  0.42588000  0.11825244  0.76232443    -0.02700
H270        H  0.40098922  0.06686584  0.72227347     0.09500
H271        H  0.47954517  0.01500390  0.79918734     0.07500
Br272      Br  0.45506041  0.96279121  0.75702018    -0.03100
O273        O  0.39845278  0.48249154  0.71311535    -0.73600
O274        O  0.36422438  0.94591660  0.61004199    -0.74500
O275        O  0.42428615  0.94891736  0.64139358    -0.63200
O276        O  0.33917888  0.96539250  0.67437724    -0.71600
O277        O  0.33498900  0.51849759  0.65951374    -0.71100
O278        O  0.42803233  0.50087936  0.62935047    -0.62400
O279        O  0.36612490  0.49687188  0.60087896    -0.74900
O280        O  0.39863900  0.52939469  0.68805283    -0.73700
Cu281      Cu  0.38227591  0.95732507  0.65829285     1.04600
Cu282      Cu  0.38201603  0.51331301  0.64405834     1.04300
C283        C  0.40477258  0.51233516  0.71402029     0.92600
C284        C  0.36249409  0.96713450  0.58632533     0.91800
C285        C  0.43941689  0.47302468  0.63621468     0.83900
C286        C  0.32053882  0.49528504  0.67386385     0.90200
O287        O  0.46361480  0.65411286  0.87260142    -0.73600
O288        O  0.44384004  0.56420151  0.90655198    -0.74500
O289        O  0.45683236  0.62386505  0.93722943    -0.63200
O290        O  0.44478195  0.59455319  0.84284025    -0.71600
O291        O  0.49488412  0.57757790  0.83878799    -0.71100
O292        O  0.00882897  0.61361253  0.93614094    -0.62400
O293        O  0.49611279  0.55516782  0.90579683    -0.74900
O294        O  0.51424324  0.63875019  0.86821633    -0.73700
Cu295      Cu  0.45053866  0.60992647  0.88982958     1.04600
Cu296      Cu  0.50540110  0.59620916  0.88692921     1.04300
C297        C  0.49289125  0.66032197  0.86559194     0.92600
C298        C  0.46802558  0.54547209  0.91079379     0.91800
C299        C  0.48351740  0.62207087  0.95256392     0.83900
C300        C  0.46616345  0.57896623  0.82682284     0.90200
O301        O  0.18004999  0.92785009  0.64145027    -0.73600
O302        O  0.08790253  0.91418222  0.60918639    -0.74500
O303        O  0.14756103  0.92425642  0.57793671    -0.63200
O304        O  0.11921469  0.91140976  0.67228162    -0.71600
O305        O  0.10610409  0.96221339  0.67856219    -0.71100
O306        O  0.14042512  0.97646748  0.58100827    -0.62400
O307        O  0.08168689  0.96650735  0.61199276    -0.74900
O308        O  0.16762494  0.97869397  0.64801456    -0.73700
Cu309      Cu  0.13438123  0.91765484  0.62524275     1.04600
Cu310      Cu  0.12400064  0.97283051  0.63034838     1.04300
C311        C  0.18831549  0.95639826  0.64872368     0.92600
C312        C  0.07056465  0.93937426  0.60553401     0.91800
C313        C  0.14699728  0.95126417  0.56371863     0.83900
C314        C  0.10516398  0.93324399  0.68906600     0.90200
O315        O  0.01211001  0.86807570  0.80807126    -0.73600
O316        O  0.98496596  0.83950961  0.90440796    -0.74500
O317        O  0.99068681  0.89620949  0.86864386    -0.63200
O318        O  0.00123708  0.80796500  0.84211456    -0.71600
O319        O  0.05143019  0.80585987  0.85959992    -0.71100
O320        O  0.04046955  0.89987517  0.88687011    -0.62400
O321        O  0.03611205  0.84026841  0.91902620    -0.74900
O322        O  0.06192262  0.86795860  0.82730279    -0.73700
Cu323      Cu  0.99565971  0.85260185  0.85492940     1.04600
Cu324      Cu  0.04941382  0.85331373  0.87341766     1.04300
C325        C  0.04178606  0.87472976  0.80398437     0.92600
C326        C  0.00708037  0.83686366  0.92717206     0.91800
C327        C  0.01252409  0.91228430  0.88246846     0.83900
C328        C  0.02632294  0.79177627  0.84854058     0.90200
O329        O  0.03817999  0.65600294  0.16392538    -0.73600
O330        O  0.02136117  0.56241508  0.14045717    -0.74500
O331        O  0.02043144  0.62156492  0.10617864    -0.63200
O332        O  0.04583316  0.59524835  0.19818316    -0.71600
O333        O  0.99598106  0.59672063  0.21710134    -0.71100
O334        O  0.47009448  0.62992105  0.12133011    -0.62400
O335        O  0.97135489  0.57161732  0.15642918    -0.74900
O336        O  0.98893726  0.65850434  0.18438323    -0.73700
Cu337      Cu  0.03333432  0.60870523  0.15188930     1.04600
Cu338      Cu  0.97992734  0.61461737  0.17067546     1.04300
C339        C  0.01460886  0.67219609  0.17626397     0.92600
C340        C  0.99255590  0.55290230  0.14487016     0.91800
C341        C  0.99213641  0.62981065  0.09844130     0.83900
C342        C  0.02571170  0.58949966  0.22142221     0.90200
O343        O  0.16985149  0.51647127  0.37120498    -0.73600
O344        O  0.07931055  0.50229822  0.40837250    -0.74500
O345        O  0.14256483  0.49390128  0.43035833    -0.63200
O346        O  0.10471554  0.53209926  0.34868285    -0.71600
O347        O  0.10167168  0.48620177  0.32165165    -0.71100
O348        O  0.14760161  0.94399168  0.39460601    -0.62400
O349        O  0.08815910  0.95699005  0.36538611    -0.74900
O350        O  0.17481419  0.96717901  0.33307516    -0.73700
Cu351      Cu  0.12413701  0.51307354  0.39003170     1.04600
Cu352      Cu  0.13082291  0.96201876  0.34869416     1.04300
C353        C  0.18299556  0.49302950  0.35527807     0.92600
C354        C  0.06675994  0.47524213  0.40164407     0.91800
C355        C  0.15302915  0.96257280  0.41999113     0.83900
C356        C  0.09539247  0.51618316  0.32305664     0.90200
O357        O  0.33827696  0.93206907  0.36181356    -0.73600
O358        O  0.42966264  0.92409560  0.39977682    -0.74500
O359        O  0.36742509  0.93091255  0.42651613    -0.63200
O360        O  0.40135636  0.91862341  0.33463243    -0.71600
O361        O  0.41195250  0.96947109  0.32814654    -0.71100
O362        O  0.37166889  0.98310615  0.42395577    -0.62400
O363        O  0.43231401  0.97643488  0.39582526    -0.74900
O364        O  0.34740211  0.98317315  0.35496744    -0.73700
Cu365      Cu  0.38371060  0.92468640  0.38059461     1.04600
Cu366      Cu  0.39059742  0.97995167  0.37518129     1.04300
C367        C  0.32823965  0.96005883  0.35375470     0.92600
C368        C  0.44500789  0.95011647  0.40392861     0.91800
C369        C  0.36600732  0.95767171  0.44105676     0.83900
C370        C  0.41541518  0.94035897  0.31840033     0.90200
O371        O  0.50922475  0.88318180  0.19110983    -0.73600
O372        O  0.52263280  0.85233890  0.09161242    -0.74500
O373        O  0.52011070  0.90988475  0.12680374    -0.63200
O374        O  0.51802972  0.82237113  0.15695406    -0.71600
O375        O  0.46552859  0.81939742  0.15014232    -0.71100
O376        O  0.46824066  0.91214772  0.11642945    -0.62400
O377        O  0.46996017  0.85140373  0.08656782    -0.74900
O378        O  0.45722720  0.88252375  0.18030784    -0.73700
Cu379      Cu  0.51925795  0.86666658  0.14216454     1.04600
Cu380      Cu  0.46330973  0.86615263  0.13339927     1.04300
C381        C  0.48022788  0.88961944  0.19995519     0.92600
C382        C  0.49737650  0.84903072  0.07313012     0.91800
C383        C  0.49597564  0.92501595  0.11590516     0.83900
C384        C  0.49273776  0.80618876  0.15697673     0.90200
C385        C  0.44087616  0.94872470  0.26051717    -0.09800
C386        C  0.43692514  0.92999227  0.28972535     0.06400
C387        C  0.45306554  0.89994862  0.29080933    -0.03500
C388        C  0.46981868  0.88834760  0.26235632    -0.08000
C389        C  0.47161665  0.90602162  0.23237276     0.05500
C390        C  0.45776985  0.93689736  0.23203043    -0.03000
Br391      Br  0.46023783  0.96331123  0.19242865    -0.02700
H392        H  0.42955920  0.97196768  0.25914114     0.09500
H393        H  0.48009545  0.86459856  0.26309553     0.07500
Br394      Br  0.45361222  0.87287439  0.33027976    -0.03100
C395        C  0.51512102  0.48741402  0.43062764    -0.09800
C396        C  0.04299380  0.96585342  0.39916260     0.06400
C397        C  0.03089093  0.93485116  0.39255959    -0.03500
C398        C  0.99914877  0.92801674  0.39972699    -0.08000
C399        C  0.47900034  0.95108569  0.41355952     0.05500
C400        C  0.49242814  0.97956986  0.42595692    -0.03000
Br401      Br  0.45626944  0.51192093  0.45686906    -0.02700
H402        H  0.52361827  0.51081246  0.43720463     0.09500
H403        H  0.98943610  0.90566882  0.39114970     0.07500
Br404      Br  0.05447405  0.90029398  0.37190752    -0.03100
C405        C  0.23886577  0.95259755  0.33544084    -0.09800
C406        C  0.22781242  0.98421929  0.34003955     0.06400
C407        C  0.24060603  0.51133595  0.36385354    -0.03500
C408        C  0.28321400  0.99941024  0.34795672    -0.08000
C409        C  0.29397217  0.96746394  0.34562397     0.05500
C410        C  0.27121899  0.94407292  0.33838010    -0.03000
Br411      Br  0.28216173  0.89997531  0.33264251    -0.02700
H412        H  0.22204903  0.93370348  0.33104252     0.09500
H413        H  0.28912014  0.51986732  0.37781804     0.07500
Br414      Br  0.22866325  0.55350812  0.37787679    -0.03100
C415        C  0.47509895  0.97894770  0.10257013    -0.09800
C416        C  0.50121502  0.95819390  0.10529675     0.06400
C417        C  0.03257025  0.97079716  0.10310358    -0.03500
C418        C  0.03700829  0.00346174  0.10579285    -0.08000
C419        C  0.98201232  0.52047513  0.13687897     0.05500
C420        C  0.45952037  0.50536178  0.15811689    -0.03000
Br421      Br  0.44814108  0.52115303  0.20255903    -0.02700
H422        H  0.45102366  0.96987088  0.10202550     0.09500
H423        H  0.06100113  0.01260106  0.10773640     0.07500
Br424      Br  0.07078552  0.94537292  0.09773459    -0.03100
C425        C  0.48659418  0.75703142  0.19231785    -0.09800
C426        C  0.49711089  0.77164571  0.16240231     0.06400
C427        C  0.01724715  0.75421393  0.14017771    -0.03500
C428        C  0.02557686  0.72268977  0.14725559    -0.08000
C429        C  0.01398004  0.70742281  0.17623711     0.05500
C430        C  0.49483874  0.72519346  0.19935602    -0.03000
Br431      Br  0.48016487  0.70736617  0.24139031    -0.02700
H432        H  0.47249223  0.77054062  0.21054578     0.09500
H433        H  0.03959630  0.70943931  0.12873437     0.07500
Br434      Br  0.03296699  0.77179043  0.09855419    -0.03100
C435        C  0.08125371  0.56689435  0.29350193    -0.09800
C436        C  0.07651684  0.53390332  0.29640901     0.06400
C437        C  0.05153503  0.52041816  0.27702328    -0.03500
C438        C  0.03283244  0.53964064  0.25502184    -0.08000
C439        C  0.03827824  0.57240142  0.25180971     0.05500
C440        C  0.06275847  0.58585401  0.27149506    -0.03000
Br441      Br  0.07234360  0.63019022  0.26839324    -0.02700
H442        H  0.09984370  0.57819329  0.30830986     0.09500
H443        H  0.01489408  0.52860189  0.23909049     0.07500
Br444      Br  0.04129747  0.47627121  0.27977410    -0.03100
C445        C  0.02129662  0.82315150  0.02134820    -0.09800
C446        C  0.49853491  0.84376962  0.03564675     0.06400
C447        C  0.47588421  0.85873800  0.01366639    -0.03500
C448        C  0.47681614  0.85332287  0.97844975    -0.08000
C449        C  0.00024628  0.83354711  0.96406341     0.05500
C450        C  0.02204834  0.81764542  0.98608608    -0.03000
Br451      Br  0.05350753  0.78805898  0.96931789    -0.02700
H452        H  0.03869283  0.81127304  0.03758484     0.09500
H453        H  0.46064987  0.86665242  0.96197935     0.07500
Br454      Br  0.44536607  0.89002352  0.02925196    -0.03100
C455        C  0.17664569  0.96808695  0.51161033    -0.09800
C456        C  0.15138670  0.95168016  0.52642878     0.06400
C457        C  0.13137059  0.93317709  0.50538056    -0.03500
C458        C  0.13547302  0.93301895  0.47004785    -0.08000
C459        C  0.15917968  0.95126864  0.45492085     0.05500
C460        C  0.17704564  0.47108908  0.48784251    -0.03000
Br461      Br  0.21027583  0.49522390  0.46697455    -0.02700
H462        H  0.19013606  0.48667194  0.53832283     0.09500
H463        H  0.11806052  0.92109073  0.45419130     0.07500
Br464      Br  0.09569953  0.91024534  0.52304002    -0.03100
C465        C  0.06371264  0.89784503  0.71292455    -0.09800
C466        C  0.08538310  0.92277824  0.71851273     0.06400
C467        C  0.09010046  0.93336779  0.75208053    -0.03500
C468        C  0.07466638  0.91804386  0.77922965    -0.08000
C469        C  0.05386089  0.89235009  0.77369709     0.05500
C470        C  0.04783171  0.88290817  0.73995341    -0.03000
Br471      Br  0.02076999  0.84776601  0.72974025    -0.02700
H472        H  0.05994699  0.88910236  0.68725719     0.09500
H473        H  0.07958907  0.92577356  0.80502992     0.07500
Br474      Br  0.11942094  0.96661541  0.76225872    -0.03100
C475        C  0.00891828  0.64447772  0.00518671    -0.09800
C476        C  0.48369282  0.62817862  0.98992864     0.06400
C477        C  0.45841930  0.61748065  0.01094706    -0.03500
C478        C  0.45968634  0.62167087  0.04634982    -0.08000
C479        C  0.98590995  0.63605292  0.06178837     0.05500
C480        C  0.01002556  0.64878478  0.04065263    -0.03000
Br481      Br  0.04546331  0.67187792  0.05893699    -0.02700
H482        H  0.02799282  0.65361603  0.98954502     0.09500
H483        H  0.44139155  0.61116787  0.06205000     0.07500
Br484      Br  0.42323607  0.59320152  0.99386882    -0.03100
C485        C  0.99177731  0.49665115  0.93435125    -0.09800
C486        C  0.46561427  0.51122506  0.91750604     0.06400
C487        C  0.46340207  0.98794287  0.88714475    -0.03500
C488        C  0.47286991  0.95646449  0.88251023    -0.08000
C489        C  0.00354642  0.94522097  0.89239902     0.05500
C490        C  0.02364744  0.96582993  0.91049697    -0.03000
Br491      Br  0.06567311  0.95394433  0.92602508    -0.02700
H492        H  0.00687291  0.51074735  0.95080382     0.09500
H493        H  0.45643168  0.94122643  0.86905873     0.07500
Br494      Br  0.42367022  0.00125300  0.86666353    -0.03100
C495        C  0.03288419  0.70357339  0.86936270    -0.09800
C496        C  0.50347442  0.69279430  0.85640974     0.06400
C497        C  0.48546106  0.71323760  0.83540386    -0.03500
C498        C  0.49551202  0.74445508  0.83020542    -0.08000
C499        C  0.02330708  0.75645513  0.84602838     0.05500
C500        C  0.04290424  0.73493831  0.86444986    -0.03000
Br501      Br  0.08250591  0.74685878  0.88531972    -0.02700
H502        H  0.04765496  0.68783261  0.88480807     0.09500
H503        H  0.48036314  0.75996142  0.81491938     0.07500
Br504      Br  0.44731119  0.69966344  0.81274917    -0.03100
C505        C  0.34419244  0.98339552  0.49380880    -0.09800
C506        C  0.35989424  0.95769684  0.47838708     0.06400
C507        C  0.37072566  0.93210355  0.49940023    -0.03500
C508        C  0.36739733  0.93365705  0.53483801    -0.08000
C509        C  0.35403538  0.96044740  0.55035806     0.05500
C510        C  0.34088802  0.98482345  0.52932029    -0.03000
Br511      Br  0.29850470  0.50062951  0.56103222    -0.02700
H512        H  0.33504538  0.00279279  0.47826894     0.09500
H513        H  0.37816620  0.91514097  0.55046901     0.07500
Br514      Br  0.39446201  0.89591059  0.48270215    -0.03100
C515        C  0.51839071  0.92019243  0.62105012    -0.09800
C516        C  0.03615435  0.93857832  0.59884946     0.06400
C517        C  0.02109901  0.96434208  0.58188874    -0.03500
C518        C  0.98886884  0.47959315  0.60163482    -0.08000
C519        C  0.47383729  0.95810578  0.61690323     0.05500
C520        C  0.48788702  0.92989957  0.63090570    -0.03000
Br521      Br  0.46971152  0.90492319  0.66697431    -0.02700
H522        H  0.52980723  0.90044740  0.63433136     0.09500
H523        H  0.97841704  0.50076014  0.59031461     0.07500
Br524      Br  0.04320323  0.49748253  0.56243804    -0.03100
C525        C  0.23225425  0.99599139  0.64695762    -0.09800
C526        C  0.22204368  0.96525585  0.65601529     0.06400
C527        C  0.24438126  0.94431869  0.67088552    -0.03500
C528        C  0.27585624  0.95405470  0.67603494    -0.08000
C529        C  0.28683113  0.98412047  0.66516992     0.05500
C530        C  0.26337715  0.51251539  0.65857120    -0.03000
Br531      Br  0.27572051  0.55071084  0.63576479    -0.02700
H532        H  0.21553340  0.51771838  0.63954842     0.09500
H533        H  0.29224842  0.93688176  0.68718872     0.07500
Br534      Br  0.23382919  0.90193794  0.68438078    -0.03100
C535        C  0.44393255  0.51285527  0.76374609    -0.09800
C536        C  0.42025100  0.52837763  0.74397647     0.06400
C537        C  0.41421334  0.56098378  0.75061598    -0.03500
C538        C  0.43167840  0.57714028  0.77550413    -0.08000
C539        C  0.45522243  0.56190369  0.79540710     0.05500
C540        C  0.46117316  0.52920034  0.78934157    -0.03000
Br541      Br  0.49084256  0.50525505  0.81673341    -0.02700
H542        H  0.44922695  0.48800957  0.75915516     0.09500
H543        H  0.42572690  0.60183096  0.78040089     0.07500
Br544      Br  0.38051532  0.58488937  0.72864644    -0.03100
O545        O  0.90217699  0.97544771  0.70349474    -0.73600
O546        O  0.86407775  0.44773746  0.62088925    -0.74500
O547        O  0.92309865  0.45394987  0.65341350    -0.63200
O548        O  0.83638943  0.47079179  0.68276913    -0.71600
O549        O  0.83613797  0.01243552  0.64992843    -0.71100
O550        O  0.93116473  0.99799888  0.62361771    -0.62400
O551        O  0.87068893  0.99527842  0.59242642    -0.74900
O552        O  0.89851714  0.02359291  0.68171996    -0.73700
Cu553      Cu  0.88027619  0.46224991  0.66858468     1.04600
Cu554      Cu  0.88421385  0.00928152  0.63669638     1.04300
C555        C  0.90702303  0.00553782  0.70609335     0.92600
C556        C  0.86073136  0.46769916  0.59619971     0.91800
C557        C  0.94174637  0.96935093  0.62772964     0.83900
C558        C  0.82233969  0.98864786  0.66402381     0.90200
O559        O  0.96092555  0.15165717  0.86299490    -0.73600
O560        O  0.95561221  0.05893138  0.89427593    -0.74500
O561        O  0.96282380  0.11875663  0.92577529    -0.63200
O562        O  0.94739685  0.09064568  0.83202966    -0.71600
O563        O  0.99863547  0.07977074  0.82338292    -0.71100
O564        O  0.51543918  0.11550798  0.92034532    -0.62400
O565        O  0.00828452  0.05651923  0.88906476    -0.74900
O566        O  0.01225317  0.14267604  0.85313234    -0.73700
Cu567      Cu  0.95489283  0.10549312  0.87885559     1.04600
Cu568      Cu  0.01052552  0.09881973  0.87092490     1.04300
C569        C  0.98856515  0.16182830  0.85424184     0.92600
C570        C  0.98215907  0.04331252  0.89609560     0.91800
C571        C  0.99046333  0.12011609  0.93889130     0.83900
C572        C  0.96917071  0.07788502  0.81398723     0.90200
O573        O  0.67905653  0.43657749  0.65597409    -0.73600
O574        O  0.58694287  0.42137753  0.62398501    -0.74500
O575        O  0.64654585  0.43056054  0.59238458    -0.63200
O576        O  0.61888548  0.42101888  0.68731302    -0.71600
O577        O  0.60401564  0.47157539  0.69094644    -0.71100
O578        O  0.63905351  0.48279623  0.59324767    -0.62400
O579        O  0.58042305  0.47369581  0.62432826    -0.74900
O580        O  0.66586154  0.48750580  0.66049928    -0.73700
Cu581      Cu  0.63352354  0.42560369  0.63999177     1.04600
Cu582      Cu  0.62238660  0.48078607  0.64265429     1.04300
C583        C  0.68675817  0.46545528  0.66238328     0.92600
C584        C  0.56953655  0.44632288  0.61881317     0.91800
C585        C  0.64562437  0.45699394  0.57698365     0.83900
C586        C  0.60445084  0.44318275  0.70317678     0.90200
O587        O  0.50247960  0.37667276  0.81154664    -0.73600
O588        O  0.46444987  0.34296923  0.90186965    -0.74500
O589        O  0.47418518  0.40178377  0.87119778    -0.63200
O590        O  0.48746864  0.31458524  0.84004991    -0.71600
O591        O  0.53511279  0.31083054  0.86410475    -0.71100
O592        O  0.52179366  0.40336186  0.89551491    -0.62400
O593        O  0.51371266  0.34252337  0.92263178    -0.74900
O594        O  0.54957643  0.37361160  0.83683507    -0.73700
Cu595      Cu  0.48063771  0.35878420  0.85499612     1.04600
Cu596      Cu  0.53190170  0.35747223  0.88013986     1.04300
C597        C  0.53269915  0.38205667  0.81129777     0.92600
C598        C  0.48402429  0.33886983  0.92694489     0.91800
C599        C  0.49438920  0.41632840  0.88929151     0.83900
C600        C  0.51136781  0.29763790  0.84906342     0.90200
O601        O  0.53764529  0.16363026  0.15475212    -0.73600
O602        O  0.54129991  0.07141164  0.12072613    -0.74500
O603        O  0.52868052  0.13147496  0.09319341    -0.63200
O604        O  0.55726747  0.10219567  0.18356213    -0.71600
O605        O  0.50793553  0.09358042  0.20115541    -0.71100
O606        O  0.97776099  0.12546687  0.10666888    -0.62400
O607        O  0.49127497  0.06788914  0.13817244    -0.74900
O608        O  0.48817338  0.15467901  0.17147248    -0.73700
Cu609      Cu  0.54315249  0.11755167  0.13804026     1.04600
Cu610      Cu  0.48965118  0.11049645  0.15533804     1.04300
C611        C  0.51052990  0.17398700  0.16589597     0.92600
C612        C  0.51499441  0.05604831  0.12270768     0.91800
C613        C  0.49950429  0.13176924  0.08458777     0.83900
C614        C  0.53833916  0.09117440  0.20576647     0.90200
O615        O  0.67992880  0.01364393  0.35854844    -0.73600
O616        O  0.58734390  0.00279182  0.39255939    -0.74500
O617        O  0.64969240  0.99232102  0.41689884    -0.63200
O618        O  0.61591741  0.03155823  0.33333438    -0.71600
O619        O  0.61213834  0.98551806  0.30657606    -0.71100
O620        O  0.64162585  0.44548941  0.40814285    -0.62400
O621        O  0.58057420  0.45630077  0.38137037    -0.74900
O622        O  0.66595519  0.46992556  0.34573308    -0.73700
Cu623      Cu  0.63330626  0.01203685  0.37570563     1.04600
Cu624      Cu  0.62259697  0.46302025  0.36296982     1.04300
C625        C  0.69249859  0.98959875  0.34308103     0.92600
C626        C  0.57426112  0.97607087  0.38533847     0.91800
C627        C  0.64726671  0.46431992  0.43326577     0.83900
C628        C  0.60686881  0.01567358  0.30754044     0.90200
O629        O  0.82882886  0.43562092  0.37164712    -0.73600
O630        O  0.92175753  0.42497773  0.40528623    -0.74500
O631        O  0.86159467  0.43240574  0.43588084    -0.63200
O632        O  0.89077619  0.42222024  0.34057291    -0.71600
O633        O  0.89842235  0.47387961  0.33453512    -0.71100
O634        O  0.86715383  0.48465864  0.43383035    -0.62400
O635        O  0.92518563  0.47718074  0.40038988    -0.74900
O636        O  0.83777442  0.48709886  0.36753573    -0.73700
Cu637      Cu  0.87525193  0.42694183  0.38817062     1.04600
Cu638      Cu  0.88206953  0.48247507  0.38365793     1.04300
C639        C  0.81864818  0.46404510  0.36548422     0.92600
C640        C  0.93737706  0.45081124  0.40926571     0.91800
C641        C  0.86187909  0.45913637  0.45081731     0.83900
C642        C  0.90091161  0.44533548  0.32302426     0.90200
O643        O  0.97750909  0.38653932  0.18796234    -0.73600
O644        O  0.99158274  0.35474887  0.08914729    -0.74500
O645        O  0.98321524  0.41281676  0.12291120    -0.63200
O646        O  0.99269943  0.32577204  0.15484046    -0.71600
O647        O  0.94188789  0.31483318  0.14494055    -0.71100
O648        O  0.93030720  0.41008364  0.12266177    -0.62400
O649        O  0.93893414  0.35246036  0.08462211    -0.74900
O650        O  0.92695999  0.37309882  0.18190105    -0.73700
Cu651      Cu  0.98808045  0.36981826  0.13911299     1.04600
Cu652      Cu  0.93263395  0.36210019  0.13337381     1.04300
C653        C  0.94847430  0.38712551  0.19886247     0.92600
C654        C  0.96632356  0.35056941  0.07095643     0.91800
C655        C  0.95612597  0.42612582  0.11990079     0.83900
C656        C  0.97052765  0.30566166  0.15241400     0.90200
C657        C  0.89649861  0.43565257  0.26076117    -0.09800
C658        C  0.91592143  0.43747889  0.28966880     0.06400
C659        C  0.94728218  0.42463836  0.28784822    -0.03500
C660        C  0.95822934  0.40932433  0.25801032    -0.08000
C661        C  0.93804948  0.40575480  0.22964581     0.05500
C662        C  0.90713144  0.42033943  0.23103154    -0.03000
Br663      Br  0.87762730  0.42097135  0.19332085    -0.02700
H664        H  0.87227076  0.44502786  0.26177984     0.09500
H665        H  0.98209599  0.39905329  0.25756041     0.07500
Br666      Br  0.97549847  0.42608740  0.32624556    -0.03100
C667        C  0.02407162  0.98701200  0.41814398    -0.09800
C668        C  0.53562835  0.46509690  0.41553740     0.06400
C669        C  0.52439383  0.43359335  0.41064872    -0.03500
C670        C  0.49179617  0.42745203  0.41318644    -0.08000
C671        C  0.97052663  0.45178032  0.42191019     0.05500
C672        C  0.98284761  0.48053122  0.43490819    -0.03000
Br673      Br  0.96785587  0.00997298  0.45173715    -0.02700
H674        H  0.03327616  0.00993648  0.42551475     0.09500
H675        H  0.48289930  0.40454821  0.40529081     0.07500
Br676      Br  0.55128827  0.39780108  0.39903689    -0.03100
C677        C  0.73051791  0.45945194  0.33990691    -0.09800
C678        C  0.71847019  0.48919706  0.35134974     0.06400
C679        C  0.75070885  0.00785740  0.34549526    -0.03500
C680        C  0.77295518  0.50265390  0.36703708    -0.08000
C681        C  0.78441661  0.47204735  0.35815059     0.05500
C682        C  0.76284281  0.45074128  0.34336536    -0.03000
Br683      Br  0.77591413  0.40964477  0.32706258    -0.02700
H684        H  0.71447101  0.44193774  0.32952572     0.09500
H685        H  0.80005616  0.01811413  0.35313262     0.07500
Br686      Br  0.73939505  0.05192916  0.34999587    -0.03100
C687        C  0.94668970  0.47626931  0.14862482    -0.09800
C688        C  0.95678194  0.46086630  0.11892565     0.06400
C689        C  0.47860599  0.47624322  0.09725102    -0.03500
C690        C  0.49084773  0.50595097  0.10615233    -0.08000
C691        C  0.51072776  0.02388074  0.10880024     0.05500
C692        C  0.97961187  0.01164982  0.10346626    -0.03000
Br693      Br  0.94189329  0.03790387  0.09855069    -0.02700
H694        H  0.93154734  0.46402474  0.16650184     0.09500
H695        H  0.50736782  0.51756425  0.08920830     0.07500
Br696      Br  0.49396907  0.45628016  0.05639079    -0.03100
C697        C  0.96426006  0.25192501  0.17922749    -0.09800
C698        C  0.98003599  0.27178313  0.15639888     0.06400
C699        C  0.50753862  0.25988602  0.13949850    -0.03500
C700        C  0.51858994  0.22891394  0.14537493    -0.08000
C701        C  0.50266283  0.20860616  0.16766379     0.05500
C702        C  0.97531583  0.22070197  0.18512539    -0.03000
Br703      Br  0.95217246  0.19631078  0.21797094    -0.02700
H704        H  0.94361154  0.26091068  0.19304448     0.09500
H705        H  0.53883994  0.22012787  0.13078467     0.07500
Br706      Br  0.52993594  0.28397327  0.10582312    -0.03100
C707        C  0.59849328  0.06488651  0.27329469    -0.09800
C708        C  0.58935634  0.03348984  0.28005498     0.06400
C709        C  0.56106812  0.02238824  0.26448709    -0.03500
C710        C  0.54329595  0.04225552  0.24221594    -0.08000
C711        C  0.55302707  0.07341484  0.23497341     0.05500
C712        C  0.58092488  0.08457334  0.25111227    -0.03000
Br713      Br  0.59578571  0.12706754  0.24453710    -0.02700
H714        H  0.61951557  0.07439169  0.28563364     0.09500
H715        H  0.52231462  0.03292221  0.22966102     0.07500
Br716      Br  0.54462285  0.98105774  0.27406714    -0.03100
C717        C  0.49155342  0.32348070  0.02098556    -0.09800
C718        C  0.96790754  0.34399455  0.03375551     0.06400
C719        C  0.94541622  0.35748993  0.01057650    -0.03500
C720        C  0.94853316  0.35224110  0.97543179    -0.08000
C721        C  0.47365796  0.33361173  0.96255903     0.05500
C722        C  0.49422546  0.31777057  0.98593074    -0.03000
Br723      Br  0.52709608  0.28863069  0.97122098    -0.02700
H724        H  0.50827332  0.31194775  0.03834424     0.09500
H725        H  0.93285404  0.36504679  0.95797837     0.07500
Br726      Br  0.91201583  0.38637080  0.02452436    -0.03100
C727        C  0.67383087  0.47246572  0.52341366    -0.09800
C728        C  0.64937746  0.45596807  0.53959396     0.06400
C729        C  0.62933598  0.43628373  0.51982938    -0.03500
C730        C  0.63256508  0.43504454  0.48441663    -0.08000
C731        C  0.65528360  0.45347598  0.46791132     0.05500
C732        C  0.68078506  0.96776108  0.47612824    -0.03000
Br733      Br  0.71543367  0.99133662  0.45725649    -0.02700
H734        H  0.69296868  0.98131351  0.52754667     0.09500
H735        H  0.61500512  0.42229266  0.46954489     0.07500
Br736      Br  0.59447607  0.41333214  0.53920428    -0.03100
C737        C  0.55280510  0.43571082  0.73432259    -0.09800
C738        C  0.58645319  0.43360227  0.73416120     0.06400
C739        C  0.60149194  0.41441116  0.75896393    -0.03500
C740        C  0.58339207  0.39770657  0.78275176    -0.08000
C741        C  0.54965785  0.39906151  0.78289785     0.05500
C742        C  0.53443217  0.41878354  0.75830775    -0.03000
Br743      Br  0.48889951  0.42368451  0.75589234    -0.02700
H744        H  0.54067344  0.44927643  0.71467381     0.09500
H745        H  0.59612762  0.38323840  0.80119118     0.07500
Br746      Br  0.64713059  0.40956112  0.76100886    -0.03100
C747        C  0.51275905  0.14719151  0.99059652    -0.09800
C748        C  0.99192345  0.12513218  0.97624963     0.06400
C749        C  0.97056494  0.10889542  0.99793198    -0.03500
C750        C  0.97084853  0.11432622  0.03306295    -0.08000
C751        C  0.49259708  0.13524490  0.04771373     0.05500
C752        C  0.51314725  0.15245678  0.02596231    -0.03000
Br753      Br  0.54233290  0.18346944  0.04317787    -0.02700
H754        H  0.52863567  0.16041817  0.97432220     0.09500
H755        H  0.95572399  0.10015283  0.04923260     0.07500
Br756      Br  0.94264065  0.07617162  0.98187078    -0.03100
C757        C  0.51363332  0.99718724  0.91615704    -0.09800
C758        C  0.98443400  0.00903871  0.90287083     0.06400
C759        C  0.94601682  0.49248708  0.89684261    -0.03500
C760        C  0.95537074  0.46132686  0.88954633    -0.08000
C761        C  0.48432552  0.44812935  0.90222224     0.05500
C762        C  0.50165059  0.46564645  0.92647144    -0.03000
Br763      Br  0.53989377  0.45000327  0.94814568    -0.02700
H764        H  0.53013744  0.01325812  0.92838877     0.09500
H765        H  0.94066121  0.44816635  0.87187746     0.07500
Br766      Br  0.90931512  0.50940507  0.87321100    -0.03100
C767        C  0.52579491  0.20773565  0.85506182    -0.09800
C768        C  0.99491804  0.19615945  0.84799427     0.06400
C769        C  0.97133108  0.21793205  0.83704489    -0.03500
C770        C  0.97829126  0.25034430  0.83528602    -0.08000
C771        C  0.50850053  0.26237012  0.84476447     0.05500
C772        C  0.53271885  0.24026319  0.85371100    -0.03000
Br773      Br  0.57550494  0.25247180  0.86496028    -0.02700
H774        H  0.54461534  0.19145783  0.86310081     0.09500
H775        H  0.95912314  0.26638434  0.82769187     0.07500
Br776      Br  0.92924561  0.20507876  0.82384958    -0.03100
C777        C  0.83456714  0.47628329  0.50478919    -0.09800
C778        C  0.85887546  0.45902340  0.48845783     0.06400
C779        C  0.87989221  0.44005449  0.50848151    -0.03500
C780        C  0.87726002  0.43972935  0.54403730    -0.08000
C781        C  0.85414861  0.45832006  0.56056930     0.05500
C782        C  0.83204751  0.47594717  0.54050180    -0.03000
Br783      Br  0.81931814  0.02155690  0.54769951    -0.02700
H784        H  0.81768110  0.49024851  0.48980530     0.09500
H785        H  0.89523460  0.42708058  0.55895655     0.07500
Br786      Br  0.91517438  0.41681743  0.48913886    -0.03100
C787        C  0.01684740  0.42479694  0.62981233    -0.09800
C788        C  0.53537641  0.44519538  0.61058120     0.06400
C789        C  0.52046031  0.47122920  0.59391552    -0.03500
C790        C  0.49022165  0.97406837  0.59115051    -0.08000
C791        C  0.97139612  0.46162255  0.62491250     0.05500
C792        C  0.98513342  0.43249978  0.63710813    -0.03000
Br793      Br  0.96429620  0.40241228  0.66626695    -0.02700
H794        H  0.02797036  0.40457031  0.64238247     0.09500
H795        H  0.47939520  0.99462061  0.57883086     0.07500
Br796      Br  0.54301859  0.98836639  0.54783664    -0.03100
C797        C  0.73142812  0.50324597  0.65505355    -0.09800
C798        C  0.72017669  0.47492250  0.66965593     0.06400
C799        C  0.74094380  0.45715952  0.69053602    -0.03500
C800        C  0.77268941  0.46660379  0.69455945    -0.08000
C801        C  0.78500622  0.49331321  0.67731448     0.05500
C802        C  0.76420364  0.00534493  0.65081326    -0.03000
Br803      Br  0.77516405  0.04671726  0.63452786    -0.02700
H804        H  0.71550657  0.01259148  0.63537298     0.09500
H805        H  0.78826780  0.45172797  0.70997447     0.07500
Br806      Br  0.72729592  0.42002998  0.71436634    -0.03100
C807        C  0.91827296  0.05487177  0.73853946    -0.09800
C808        C  0.92319553  0.02175203  0.73571035     0.06400
C809        C  0.94608958  0.00752820  0.75782338    -0.03500
C810        C  0.96319876  0.02644900  0.78146536    -0.08000
C811        C  0.95811563  0.05962734  0.78358816     0.05500
C812        C  0.93524373  0.07347638  0.76165633    -0.03000
Br813      Br  0.92589645  0.11825335  0.76231515    -0.02700
H814        H  0.90100104  0.06686768  0.72226594     0.09500
H815        H  0.97953908  0.01499923  0.79919564     0.07500
Br816      Br  0.95505000  0.96278684  0.75703137    -0.03100
O817        O  0.89845326  0.48249264  0.71311560    -0.73600
O818        O  0.86422555  0.94591387  0.61004343    -0.74500
O819        O  0.92428728  0.94891524  0.64139535    -0.63200
O820        O  0.83917962  0.96539007  0.67437857    -0.71600
O821        O  0.83498946  0.51849815  0.65951354    -0.71100
O822        O  0.92803264  0.50087918  0.62935048    -0.62400
O823        O  0.86612515  0.49687121  0.60087923    -0.74900
O824        O  0.89863951  0.52939550  0.68805243    -0.73700
Cu825      Cu  0.88227689  0.95732282  0.65829440     1.04600
Cu826      Cu  0.88201642  0.51331315  0.64405822     1.04300
C827        C  0.90477315  0.51233624  0.71402008     0.92600
C828        C  0.86249537  0.96713169  0.58632667     0.91800
C829        C  0.93941706  0.47302453  0.63621506     0.83900
C830        C  0.82053925  0.49528589  0.67386415     0.90200
O831        O  0.96361382  0.65411215  0.87260248    -0.73600
O832        O  0.94384044  0.56420011  0.90655196    -0.74500
O833        O  0.95683167  0.62386358  0.93723016    -0.63200
O834        O  0.94478204  0.59455259  0.84284064    -0.71600
O835        O  0.99488451  0.57757816  0.83878834    -0.71100
O836        O  0.50882949  0.61361312  0.93614016    -0.62400
O837        O  0.99611331  0.55516722  0.90579688    -0.74900
O838        O  0.01424249  0.63875030  0.86821741    -0.73700
Cu839      Cu  0.95053835  0.60992539  0.88983015     1.04600
Cu840      Cu  0.00540102  0.59620898  0.88692980     1.04300
C841        C  0.99289016  0.66032174  0.86559301     0.92600
C842        C  0.96802624  0.54547099  0.91079362     0.91800
C843        C  0.98351671  0.62206978  0.95256468     0.83900
C844        C  0.96616390  0.57896629  0.82682306     0.90200
O845        O  0.68004889  0.92784952  0.64145066    -0.73600
O846        O  0.58790141  0.91418341  0.60918630    -0.74500
O847        O  0.64756017  0.92425698  0.57793715    -0.63200
O848        O  0.61921324  0.91141013  0.67228177    -0.71600
O849        O  0.60610405  0.96221408  0.67856282    -0.71100
O850        O  0.64042495  0.97646810  0.58100902    -0.62400
O851        O  0.58168639  0.96650857  0.61199334    -0.74900
O852        O  0.66762503  0.97869361  0.64801516    -0.73700
Cu853      Cu  0.63438003  0.91765523  0.62524298     1.04600
Cu854      Cu  0.62400046  0.97283105  0.63034903     1.04300
C855        C  0.68831511  0.95639745  0.64872415     0.92600
C856        C  0.57056387  0.93937568  0.60553406     0.91800
C857        C  0.64699688  0.95126482  0.56371927     0.83900
C858        C  0.60516348  0.93324469  0.68906654     0.90200
O859        O  0.51211230  0.86807624  0.80807327    -0.73600
O860        O  0.48496835  0.83950939  0.90440954    -0.74500
O861        O  0.49068957  0.89620981  0.86864617    -0.63200
O862        O  0.50123917  0.80796526  0.84211586    -0.71600
O863        O  0.55143231  0.80585970  0.85960109    -0.71100
O864        O  0.54047244  0.89987484  0.88687213    -0.62400
O865        O  0.53611447  0.84026781  0.91902774    -0.74900
O866        O  0.56192499  0.86795846  0.82730451    -0.73700
Cu867      Cu  0.49566207  0.85260210  0.85493122     1.04600
Cu868      Cu  0.54941625  0.85331341  0.87341929     1.04300
C869        C  0.54178839  0.87473001  0.80398624     0.92600
C870        C  0.50708278  0.83686304  0.92717355     0.91800
C871        C  0.51252712  0.91228437  0.88247065     0.83900
C872        C  0.52632499  0.79177635  0.84854158     0.90200
O873        O  0.53818176  0.65600142  0.16392489    -0.73600
O874        O  0.52136168  0.56241390  0.14045602    -0.74500
O875        O  0.52043268  0.62156405  0.10617782    -0.63200
O876        O  0.54583405  0.59524663  0.19818214    -0.71600
O877        O  0.49598198  0.59671952  0.21710042    -0.71100
O878        O  0.97009313  0.62992143  0.12133081    -0.62400
O879        O  0.47135551  0.57161659  0.15642813    -0.74900
O880        O  0.48893902  0.65850331  0.18438270    -0.73700
Cu881      Cu  0.53333541  0.60870387  0.15188840     1.04600
Cu882      Cu  0.47992850  0.61461655  0.17067464     1.04300
C883        C  0.51461087  0.67219476  0.17626372     0.92600
C884        C  0.49255633  0.55290136  0.14486908     0.91800
C885        C  0.49213776  0.62981025  0.09844058     0.83900
C886        C  0.52571256  0.58949826  0.22142125     0.90200
O887        O  0.66985192  0.51647054  0.37120445    -0.73600
O888        O  0.57931092  0.50229789  0.40837161    -0.74500
O889        O  0.64256507  0.49390082  0.43035778    -0.63200
O890        O  0.60471621  0.53209850  0.34868202    -0.71600
O891        O  0.60167238  0.48620086  0.32165106    -0.71100
O892        O  0.64760269  0.94399273  0.39460688    -0.62400
O893        O  0.58815997  0.95698977  0.36538695    -0.74900
O894        O  0.67481456  0.96717997  0.33307576    -0.73700
Cu895      Cu  0.62413745  0.51307295  0.39003100     1.04600
Cu896      Cu  0.63082355  0.96201912  0.34869494     1.04300
C897        C  0.68299607  0.49302871  0.35527773     0.92600
C898        C  0.56676024  0.47524184  0.40164326     0.91800
C899        C  0.65302945  0.96257410  0.41999198     0.83900
C900        C  0.59539320  0.51618226  0.32305589     0.90200
O901        O  0.83827728  0.93206936  0.36181449    -0.73600
O902        O  0.92966339  0.92409562  0.39977710    -0.74500
O903        O  0.86742593  0.93091191  0.42651684    -0.63200
O904        O  0.90135659  0.91862398  0.33463275    -0.71600
O905        O  0.91195232  0.96947177  0.32814716    -0.71100
O906        O  0.87166967  0.98310555  0.42395724    -0.62400
O907        O  0.93231442  0.97643490  0.39582569    -0.74900
O908        O  0.84740226  0.98317356  0.35496910    -0.73700
Cu909      Cu  0.88371115  0.92468645  0.38059513     1.04600
Cu910      Cu  0.89059770  0.97995179  0.37518236     1.04300
C911        C  0.82823984  0.96005924  0.35375614     0.92600
C912        C  0.94500848  0.95011658  0.40392900     0.91800
C913        C  0.86600826  0.95767085  0.44105791     0.83900
C914        C  0.91541508  0.94035974  0.31840065     0.90200
O915        O  0.00922309  0.88318261  0.19110884    -0.73600
O916        O  0.02263097  0.85234008  0.09161116    -0.74500
O917        O  0.02010931  0.90988584  0.12680286    -0.63200
O918        O  0.01802749  0.82237203  0.15695266    -0.71600
O919        O  0.96552631  0.81939888  0.15014097    -0.71100
O920        O  0.96823927  0.91214920  0.11642859    -0.62400
O921        O  0.96995833  0.85140541  0.08656650    -0.74900
O922        O  0.95722554  0.88252514  0.18030683    -0.73700
Cu923      Cu  0.01925617  0.86666755  0.14216340     1.04600
Cu924      Cu  0.96330795  0.86615415  0.13339812     1.04300
C925        C  0.98022628  0.88962050  0.19995425     0.92600
C926        C  0.99737466  0.84903219  0.07312880     0.91800
C927        C  0.99597432  0.92501726  0.11590441     0.83900
C928        C  0.99273534  0.80618994  0.15697535     0.90200
C929        C  0.94087482  0.94872555  0.26051683    -0.09800
C930        C  0.93692474  0.92999330  0.28972529     0.06400
C931        C  0.95306562  0.89994990  0.29080911    -0.03500
C932        C  0.96981824  0.88834885  0.26235574    -0.08000
C933        C  0.97161523  0.90602267  0.23237194     0.05500
C934        C  0.95776802  0.93689824  0.23202974    -0.03000
Br935      Br  0.96023492  0.96331197  0.19242777    -0.02700
H936        H  0.92955745  0.97196844  0.25914088     0.09500
H937        H  0.98009540  0.86460001  0.26309492     0.07500
Br938      Br  0.95361367  0.87287611  0.33027989    -0.03100
C939        C  0.01512092  0.48741367  0.43062924    -0.09800
C940        C  0.54299323  0.96585325  0.39916119     0.06400
C941        C  0.53088976  0.93485157  0.39255602    -0.03500
C942        C  0.49914783  0.92801689  0.39972416    -0.08000
C943        C  0.97900083  0.95108622  0.41356038     0.05500
C944        C  0.99242831  0.97957097  0.42595673    -0.03000
Br945      Br  0.95626947  0.51191999  0.45687166    -0.02700
H946        H  0.02361821  0.51081242  0.43720648     0.09500
H947        H  0.48943482  0.90566964  0.39114568     0.07500
Br948      Br  0.55447110  0.90029563  0.37189920    -0.03100
C949        C  0.73886589  0.95259831  0.33544241    -0.09800
C950        C  0.72781264  0.98422013  0.34004095     0.06400
C951        C  0.74060635  0.51133513  0.36385416    -0.03500
C952        C  0.78321426  0.99941085  0.34795836    -0.08000
C953        C  0.79397233  0.96746447  0.34562563     0.05500
C954        C  0.77121905  0.94407355  0.33838181    -0.03000
Br955      Br  0.78216154  0.89997585  0.33264449    -0.02700
H956        H  0.72204917  0.93370437  0.33104410     0.09500
H957        H  0.78912030  0.51986642  0.37781969     0.07500
Br958      Br  0.72866341  0.55350706  0.37787806    -0.03100
C959        C  0.97509767  0.97894908  0.10256985    -0.09800
C960        C  0.00121379  0.95819526  0.10529630     0.06400
C961        C  0.53257148  0.97079581  0.10310387    -0.03500
C962        C  0.53700949  0.00346040  0.10579295    -0.08000
C963        C  0.48201253  0.52047420  0.13687802     0.05500
C964        C  0.95952012  0.50536261  0.15811769    -0.03000
Br965      Br  0.94814067  0.52115363  0.20255988    -0.02700
H966        H  0.95102266  0.96987239  0.10202514     0.09500
H967        H  0.56100251  0.01259980  0.10773645     0.07500
Br968      Br  0.57078672  0.94537155  0.09773485    -0.03100
C969        C  0.98659141  0.75703286  0.19231679    -0.09800
C970        C  0.99710809  0.77164687  0.16240107     0.06400
C971        C  0.51725016  0.75421303  0.14017891    -0.03500
C972        C  0.52557971  0.72268872  0.14725631    -0.08000
C973        C  0.51398263  0.70742147  0.17623756     0.05500
C974        C  0.99483598  0.72519496  0.19935529    -0.03000
Br975      Br  0.98016182  0.70736802  0.24138964    -0.02700
H976        H  0.97248954  0.77054220  0.21054453     0.09500
H977        H  0.53959900  0.70943858  0.12873518     0.07500
Br978      Br  0.53297055  0.77179004  0.09855588    -0.03100
C979        C  0.58125474  0.56689321  0.29350070    -0.09800
C980        C  0.57651763  0.53390228  0.29640819     0.06400
C981        C  0.55153551  0.52041714  0.27702289    -0.03500
C982        C  0.53283297  0.53963957  0.25502144    -0.08000
C983        C  0.53827901  0.57240023  0.25180887     0.05500
C984        C  0.56275948  0.58585282  0.27149387    -0.03000
Br985      Br  0.57234490  0.63018895  0.26839154    -0.02700
H986        H  0.59984508  0.57819221  0.30830847     0.09500
H987        H  0.51489410  0.52860065  0.23909014     0.07500
Br988      Br  0.54129750  0.47627034  0.27977450    -0.03100
C989        C  0.52129887  0.82315048  0.02134957    -0.09800
C990        C  0.99853306  0.84377113  0.03564538     0.06400
C991        C  0.97588265  0.85873990  0.01366499    -0.03500
C992        C  0.97681431  0.85332459  0.97844833    -0.08000
C993        C  0.50024861  0.83354604  0.96406480     0.05500
C994        C  0.52205086  0.81764458  0.98608746    -0.03000
Br995      Br  0.55351065  0.78805876  0.96931930    -0.02700
H996        H  0.53869541  0.81127220  0.03758634     0.09500
H997        H  0.96064840  0.86665430  0.96197804     0.07500
Br998      Br  0.94536527  0.89002615  0.02925059    -0.03100
C999        C  0.67664501  0.96808917  0.51161145    -0.09800
C1000       C  0.65138672  0.95168100  0.52642952     0.06400
C1001       C  0.63137160  0.93317715  0.50538103    -0.03500
C1002       C  0.63547436  0.93301927  0.47004838    -0.08000
C1003       C  0.65918025  0.95127020  0.45492172     0.05500
C1004       C  0.67704590  0.47108887  0.48784200    -0.03000
Br1005     Br  0.71027619  0.49522339  0.46697381    -0.02700
H1006       H  0.69013634  0.48667207  0.53832215     0.09500
H1007       H  0.61806267  0.92109037  0.45419170     0.07500
Br1008     Br  0.59570111  0.91024412  0.52303993    -0.03100
C1009       C  0.56370976  0.89784902  0.71292587    -0.09800
C1010       C  0.58538333  0.92277951  0.71851393     0.06400
C1011       C  0.59010520  0.93336585  0.75208215    -0.03500
C1012       C  0.57467198  0.91804160  0.77923152    -0.08000
C1013       C  0.55386321  0.89235047  0.77369903     0.05500
C1014       C  0.54782982  0.88291173  0.73995513    -0.03000
Br1015     Br  0.52076364  0.84777304  0.72974170    -0.02700
H1016       H  0.55994098  0.88910856  0.68725806     0.09500
H1017       H  0.57959791  0.92576905  0.80503214     0.07500
Br1018     Br  0.61943062  0.96660925  0.76226002    -0.03100
C1019       C  0.50891961  0.64447793  0.00518608    -0.09800
C1020       C  0.98369199  0.62817756  0.98992937     0.06400
C1021       C  0.95841873  0.61747903  0.01094779    -0.03500
C1022       C  0.95968547  0.62166973  0.04635050    -0.08000
C1023       C  0.48591133  0.63605308  0.06178774     0.05500
C1024       C  0.51002716  0.64878461  0.04065205    -0.03000
Br1025     Br  0.54546547  0.67187682  0.05893654    -0.02700
H1026       H  0.52799447  0.65361593  0.98954433     0.09500
H1027       H  0.94139092  0.61116635  0.06205075     0.07500
Br1028     Br  0.92323642  0.59319857  0.99386962    -0.03100
C1029       C  0.49177593  0.49665229  0.93435211    -0.09800
C1030       C  0.96561541  0.51122385  0.91750558     0.06400
C1031       C  0.96339908  0.98794280  0.88714067    -0.03500
C1032       C  0.97286769  0.95646495  0.88250437    -0.08000
C1033       C  0.50355006  0.94522131  0.89240113     0.05500
C1034       C  0.52365346  0.96583172  0.91049407    -0.03000
Br1035     Br  0.56568192  0.95394806  0.92601530    -0.02700
H1036       H  0.50687109  0.51074828  0.95080497     0.09500
H1037       H  0.95643104  0.94122775  0.86904878     0.07500
Br1038     Br  0.92366920  0.00125417  0.86665596    -0.03100
C1039       C  0.53288558  0.70357326  0.86936260    -0.09800
C1040       C  0.00347282  0.69279419  0.85641058     0.06400
C1041       C  0.98545893  0.71323725  0.83540492    -0.03500
C1042       C  0.99550972  0.74445468  0.83020585    -0.08000
C1043       C  0.52330909  0.75645526  0.84602875     0.05500
C1044       C  0.54290585  0.73493817  0.86445036    -0.03000
Br1045     Br  0.58250716  0.74685830  0.88532125    -0.02700
H1046       H  0.54765606  0.68783217  0.88480826     0.09500
H1047       H  0.98036046  0.75996083  0.81491993     0.07500
Br1048     Br  0.94730855  0.69966288  0.81275138    -0.03100
C1049       C  0.84419350  0.98339380  0.49381050    -0.09800
C1050       C  0.85989536  0.95769540  0.47838830     0.06400
C1051       C  0.87072680  0.93210176  0.49940100    -0.03500
C1052       C  0.86739860  0.93365472  0.53483885    -0.08000
C1053       C  0.85403654  0.96044479  0.55035937     0.05500
C1054       C  0.84088903  0.98482108  0.52932202    -0.03000
Br1055     Br  0.79850389  0.50062757  0.56103364    -0.02700
H1056       H  0.83504642  0.00279121  0.47827108     0.09500
H1057       H  0.87816752  0.91513851  0.55046948     0.07500
Br1058     Br  0.89446281  0.89590889  0.48270216    -0.03100
C1059       C  0.01839198  0.92019101  0.62105156    -0.09800
C1060       C  0.53615363  0.93858008  0.59884886     0.06400
C1061       C  0.52109869  0.96434397  0.58188804    -0.03500
C1062       C  0.48886885  0.47959411  0.60163494    -0.08000
C1063       C  0.97383835  0.95810410  0.61690505     0.05500
C1064       C  0.98788853  0.92989828  0.63090785    -0.03000
Br1065     Br  0.96971406  0.90492295  0.66697789    -0.02700
H1066       H  0.02980892  0.90044622  0.63433304     0.09500
H1067       H  0.47841709  0.50076100  0.59031508     0.07500
Br1068     Br  0.54320330  0.49748427  0.56243873    -0.03100
C1069       C  0.73225433  0.99599036  0.64696064    -0.09800
C1070       C  0.72204365  0.96525415  0.65601570     0.06400
C1071       C  0.74438166  0.94431532  0.67088263    -0.03500
C1072       C  0.77585699  0.95405048  0.67603177    -0.08000
C1073       C  0.78683170  0.98411730  0.66516980     0.05500
C1074       C  0.76337765  0.51251652  0.65857146    -0.03000
Br1075     Br  0.77572112  0.55071228  0.63576568    -0.02700
H1076       H  0.71553403  0.51771975  0.63954868     0.09500
H1077       H  0.79224917  0.93687653  0.68718277     0.07500
Br1078     Br  0.73382998  0.90193326  0.68437359    -0.03100
C1079       C  0.94393284  0.51285599  0.76374597    -0.09800
C1080       C  0.92025186  0.52837880  0.74397600     0.06400
C1081       C  0.91421490  0.56098513  0.75061516    -0.03500
C1082       C  0.93168000  0.57714128  0.77550351    -0.08000
C1083       C  0.95522334  0.56190422  0.79540693     0.05500
C1084       C  0.96117350  0.52920078  0.78934158    -0.03000
Br1085     Br  0.99084209  0.50525498  0.81673391    -0.02700
H1086       H  0.94922669  0.48801023  0.75915530     0.09500
H1087       H  0.92572889  0.60183233  0.78040023     0.07500
Br1088     Br  0.88051773  0.58489141  0.72864501    -0.03100
loop_ 
_geom_bond_atom_site_label_1 
_geom_bond_atom_site_label_2 
_geom_bond_distance 
_geom_bond_site_symmetry_2 
_ccdc_geom_bond_type 
O1           C11   1.290   1_565  A
O1         Cu281   2.104       .  S
O2           C12   1.289       .  A
O2           Cu9   2.083       .  S
O3          C285   1.259       .  A
O3           Cu9   1.918       .  S
O4          C286   1.268       .  A
O4           Cu9   1.950       .  S
O5           C14   1.289   1_545  A
O5          Cu10   2.082       .  S
O6           C13   1.290       .  A
O6          Cu10   2.082   1_565  S
O7          C284   1.261       .  A
O7          Cu10   1.920   1_565  S
O8           C11   1.269       .  A
O8          Cu10   1.961       .  S
Cu9         O273   2.089       .  S
Cu9        Cu282   2.360       .  S
Cu10       Cu281   2.351   1_545  S
C11         C264   1.510       .  S
C12         O279   1.266       .  A
C12         C237   1.479       .  S
C13         O275   1.258       .  A
C13         C519   1.482       .  S
C14         O276   1.266       .  A
C14         C529   1.502       .  S
O15          C25   1.287       .  A
O15         Cu23   2.062       .  S
O16          C26   1.286       .  A
O16         Cu23   2.053       .  S
O17          C27   1.267       .  A
O17         Cu23   1.952       .  S
O18          C28   1.270       .  A
O18         Cu23   1.966       .  S
O19          C28   1.290       .  A
O19         Cu24   2.091       .  S
O20         C571   1.288   1_455  A
O20        Cu568   2.073       .  S
O21          C26   1.265       .  A
O21         Cu24   1.923       .  S
O22          C25   1.271       .  A
O22         Cu24   1.978       .  S
Cu23        Cu24   2.364       .  S
Cu24        O564   2.073       .  S
C25         C224   1.495       .  S
C26         C214   1.470       .  S
C27         O564   1.288       .  A
C27         C204   1.482       .  S
C28         C267   1.494       .  S
O29          C39   1.287       .  A
O29         Cu37   2.063       .  S
O30          C40   1.287       .  A
O30         Cu37   2.056       .  S
O31          C41   1.268       .  A
O31         Cu37   1.960       .  S
O32          C42   1.269       .  A
O32         Cu37   1.968       .  S
O33          C42   1.289       .  A
O33         Cu38   2.086       .  S
O34          C41   1.287       .  A
O34         Cu38   2.065       .  S
O35          C40   1.264       .  A
O35         Cu38   1.923       .  S
O36          C39   1.270       .  A
O36         Cu38   1.972       .  S
Cu37        Cu38   2.368       .  S
C39         C254   1.486       .  S
C40         C244   1.466       .  S
C41         C184   1.476       .  S
C42         C194   1.491       .  S
O43          C53   1.288       .  A
O43         Cu51   2.083   1_455  S
O44          C54   1.289       .  A
O44         Cu51   2.075       .  S
O45          C55   1.266       .  A
O45         Cu51   1.935       .  S
O46          C56   1.271   1_655  A
O46         Cu51   1.970       .  S
O47          C56   1.287       .  A
O47         Cu52   2.066       .  S
O48          C55   1.287   1_455  A
O48         Cu52   2.064       .  S
O49          C54   1.266   1_455  A
O49         Cu52   1.944       .  S
O50          C53   1.272       .  A
O50         Cu52   1.980       .  S
Cu51        Cu52   2.359   1_655  S
C53         C197   1.510       .  S
C54         C177   1.482       .  S
C55         C217   1.489       .  S
C56         C227   1.502       .  S
O57          C67   1.288       .  A
O57         Cu65   2.059       .  S
O58          C68   1.287       .  A
O58         Cu65   2.061       .  S
O59          C69   1.266   1_455  A
O59         Cu65   1.947       .  S
O60          C70   1.272       .  A
O60         Cu65   1.986       .  S
O61          C70   1.288       .  A
O61         Cu66   2.075   1_455  S
O62         C613   1.289       .  A
O62        Cu610   2.069       .  S
O63          C68   1.262   1_655  A
O63         Cu66   1.917       .  S
O64          C67   1.268   1_655  A
O64         Cu66   1.966       .  S
Cu65        Cu66   2.365   1_455  S
Cu66        O606   2.069       .  S
C67         C157   1.493       .  S
C68         C147   1.474       .  S
C69         O606   1.289       .  A
C69         C207   1.481       .  S
C70         C167   1.495       .  S
O71          C81   1.288   1_545  A
O71         Cu79   2.068       .  S
O72          C82   1.289   1_545  A
O72         Cu79   2.078       .  S
O73         C355   1.265       .  A
O73         Cu79   1.937   1_565  S
O74          C84   1.272       .  A
O74         Cu79   1.987       .  S
O75          C84   1.287   1_565  A
O75        Cu352   2.073       .  S
O76          C83   1.288       .  A
O76         Cu80   2.073       .  S
O77         C354   1.263       .  A
O77         Cu80   1.928       .  S
O78         C353   1.270       .  A
O78         Cu80   1.964       .  S
Cu79       Cu352   2.362   1_545  S
Cu80        O347   2.078       .  S
Cu80       Cu351   2.362       .  S
C81         O350   1.269       .  A
C81         C406   1.498       .  S
C82         O349   1.260       .  A
C82         C396   1.487       .  S
C83         O345   1.264       .  A
C83         C187   1.471       .  S
C84         C164   1.498       .  S
O85          C95   1.289       .  A
O85         Cu93   2.074       .  S
O86          C96   1.286       .  A
O86         Cu93   2.058       .  S
O87          C97   1.269       .  A
O87         Cu93   1.972       .  S
O88          C98   1.271       .  A
O88         Cu93   1.988       .  S
O89          C98   1.287       .  A
O89         Cu94   2.077       .  S
O90          C97   1.287       .  A
O90         Cu94   2.069       .  S
O91          C96   1.265       .  A
O91         Cu94   1.929       .  S
O92          C95   1.269       .  A
O92         Cu94   1.964       .  S
Cu93        Cu94   2.368       .  S
C95         C137   1.495       .  S
C96         C127   1.473       .  S
C97         C234   1.483       .  S
C98         C114   1.489       .  S
O99         C109   1.290       .  A
O99        Cu107   2.088       .  S
O100        C110   1.288       .  A
O100       Cu107   2.065       .  S
O101        C111   1.264       .  A
O101       Cu107   1.928       .  S
O102        C112   1.268       .  A
O102       Cu107   1.963       .  S
O103        C112   1.288       .  A
O103       Cu108   2.074       .  S
O104        C111   1.287       .  A
O104       Cu108   2.066       .  S
O105        C110   1.269       .  A
O105       Cu108   1.973       .  S
O106        C109   1.270       .  A
O106       Cu108   1.974       .  S
Cu107      Cu108   2.358       .  S
C109        C117   1.503       .  S
C110        C174   1.487       .  S
C111        C144   1.465       .  S
C112        C154   1.485       .  S
C113        C114   1.396       .  A
C113        C118   1.404       .  A
C113        H120   1.084       .  S
C114        C115   1.415       .  A
C115        C116   1.411       .  A
C115       Br122   1.913       .  S
C116        C117   1.404       .  A
C116        H121   1.084       .  S
C117        C118   1.427       .  A
C118       Br119   1.924       .  S
C123        C940   1.400       .  A
C123        C400   1.400       .  A
C123        H130   1.083   1_565  S
C124        C354   1.482       .  S
C124        C125   1.427       .  A
C124        C939   1.397       .  A
C125        C126   1.396   1_455  A
C125       Br132   1.925       .  S
C126        C671   1.392       .  A
C126        H131   1.084       .  S
C127        C128   1.417       .  A
C127        C670   1.392       .  A
C128        C395   1.396       .  A
C128       Br401   1.922       .  S
Br129       C400   1.922   1_545  S
C133        C134   1.418       .  A
C133        C138   1.403       .  A
C133        H140   1.083       .  S
C134        C353   1.500       .  S
C134        C407   1.410       .  A
C135        C406   1.407   1_545  A
C135        C408   1.405   1_545  A
C135       Br142   1.918       .  S
C136        C137   1.414       .  A
C136        C407   1.403       .  A
C136        H413   1.083       .  S
C137        C138   1.405       .  A
C138       Br139   1.919       .  S
H141        C408   1.083   1_545  S
C143        C144   1.397       .  A
C143        C420   1.395       .  A
C143        H150   1.083       .  S
C144        C689   1.414       .  A
C145        C146   1.402       .  A
C145        C688   1.414       .  A
C145       Br152   1.919       .  S
C146        C419   1.400       .  A
C146        H151   1.083   1_655  S
C147        C418   1.393       .  A
C147        C692   1.422   1_455  A
C148        C415   1.394   1_545  A
C148        C691   1.422       .  A
C148       Br149   1.925       .  S
C153        C154   1.399       .  A
C153        C158   1.408       .  A
C153        H160   1.086       .  S
C154        C699   1.416       .  A
C155        C156   1.398       .  A
C155        C698   1.416   1_455  A
C155       Br162   1.921       .  S
C156        C157   1.400       .  A
C156        H161   1.085       .  S
C157        C702   1.424   1_455  A
C158        C701   1.424       .  A
C158       Br159   1.921       .  S
C163        C164   1.407       .  A
C163        C168   1.403       .  A
C163        H170   1.084       .  S
C164        C165   1.415       .  A
C165        C166   1.414       .  A
C165       Br172   1.919   1_545  S
C166        C167   1.409       .  A
C166        H171   1.084       .  S
C167        C168   1.412       .  A
C168       Br169   1.921       .  S
C173        C178   1.401   1_554  A
C173        C718   1.399       .  A
C173        H180   1.085   1_655  S
C174        C175   1.420       .  A
C174        C717   1.399       .  A
C175        C176   1.403   1_554  A
C175       Br182   1.922       .  S
C176        C721   1.399       .  A
C176        H181   1.086       .  S
C177        C178   1.417       .  A
C177        C720   1.399       .  A
C178       Br179   1.922   1_655  S
C183        C184   1.399       .  A
C183        C460   1.404       .  A
C183        H462   1.084       .  S
C184        C185   1.416       .  A
C185        C186   1.397       .  A
C185       Br192   1.920       .  S
C186        C187   1.397       .  A
C186        H191   1.085       .  S
C187        C460   1.416       .  A
C188        C455   1.404       .  A
C188        C459   1.416       .  A
C188       Br189   1.920       .  S
H190        C455   1.084       .  S
C193        C194   1.410       .  A
C193        C198   1.416       .  A
C193        H200   1.081       .  S
C194        C195   1.407       .  A
C195        C196   1.400       .  A
C195       Br202   1.920       .  S
C196        C197   1.413       .  A
C196        H201   1.081       .  S
C197        C198   1.418       .  A
C198       Br199   1.916   1_455  S
C203        C208   1.405   1_556  A
C203        C748   1.400   1_455  A
C203        H210   1.083       .  S
C204        C205   1.419       .  A
C204        C747   1.400       .  A
C205        C206   1.397   1_556  A
C205       Br212   1.924       .  S
C206        C751   1.397       .  A
C206        H211   1.083       .  S
C207        C208   1.420   1_655  A
C207        C750   1.397       .  A
C208       Br209   1.921       .  S
C213        C758   1.412   1_465  A
C213        C490   1.399       .  A
C213        H220   1.084   1_565  S
C214        C757   1.412   1_545  A
C214        C487   1.401   1_545  A
C215        C216   1.395       .  A
C215        C486   1.402       .  A
C215       Br222   1.921       .  S
C216        C761   1.416       .  A
C216        H221   1.083       .  S
C217        C218   1.409   1_655  A
C217        C760   1.416       .  A
C218        C485   1.400   1_455  A
C218       Br219   1.919       .  S
C223        C228   1.406       .  A
C223        C768   1.414   1_455  A
C223        H230   1.084       .  S
C224        C225   1.405       .  A
C224        C767   1.414       .  A
C225        C226   1.402       .  A
C225       Br232   1.919       .  S
C226        C771   1.417       .  A
C226        H231   1.083       .  S
C227        C228   1.411       .  A
C227        C770   1.417   1_455  A
C228       Br229   1.920       .  S
C233        C234   1.400       .  A
C233        C238   1.406       .  A
C233        H240   1.085       .  S
C234        C235   1.417       .  A
C235        C236   1.400       .  A
C235       Br242   1.919       .  S
C236        C237   1.398       .  A
C236        H241   1.086       .  S
C237        C238   1.416       .  A
C238       Br511   1.916       .  S
Br239       C510   1.923   1_545  S
C243        C248   1.393       .  A
C243        C788   1.390       .  A
C243        H250   1.084       .  S
C244        C245   1.415       .  A
C244        C787   1.390       .  A
C245        C518   1.398   1_455  A
C245       Br524   1.922       .  S
C246        C517   1.400   1_655  A
C246       C1063   1.400       .  A
C246        H251   1.085       .  S
C247        C285   1.485       .  S
C247        C248   1.430       .  A
C247       C1062   1.401       .  A
C248       Br249   1.927       .  S
Br252       C517   1.920       .  S
C253        C254   1.411       .  A
C253        C530   1.405       .  A
C253        H532   1.082       .  S
C254        C255   1.402       .  A
C255        C256   1.401       .  A
C255       Br262   1.918       .  S
C256        C257   1.417       .  A
C256        H261   1.082       .  S
C257        C286   1.497       .  S
C257        C530   1.411       .  A
C258        C525   1.407   1_545  A
C258        C529   1.410   1_545  A
C258       Br259   1.919       .  S
H260        C525   1.083   1_545  S
C263        C264   1.412       .  A
C263        C268   1.397       .  A
C263        H270   1.083       .  S
C264        C265   1.418       .  A
C265        C266   1.421       .  A
C265       Br272   1.917   1_545  S
C266        C267   1.414       .  A
C266        H271   1.083       .  S
C267        C268   1.406       .  A
C268       Br269   1.922       .  S
O273        C283   1.289       .  A
O274        C284   1.292       .  A
O274       Cu281   2.094       .  S
O275       Cu281   1.910       .  S
O276       Cu281   1.939       .  S
O277        C286   1.288       .  A
O277       Cu282   2.070       .  S
O278        C285   1.289       .  A
O278       Cu282   2.073       .  S
O279       Cu282   1.948       .  S
O280        C283   1.271       .  A
O280       Cu282   1.981       .  S
C283        C536   1.505       .  S
C284        C509   1.482       .  S
O287        C297   1.287       .  A
O287       Cu295   2.062       .  S
O288        C298   1.286       .  A
O288       Cu295   2.059       .  S
O289        C299   1.268       .  A
O289       Cu295   1.968       .  S
O290        C300   1.271       .  A
O290       Cu295   1.969       .  S
O291        C300   1.290       .  A
O291       Cu296   2.093       .  S
O292        C843   1.288   1_455  A
O292       Cu840   2.070       .  S
O293        C298   1.266       .  A
O293       Cu296   1.926       .  S
O294        C297   1.270       .  A
O294       Cu296   1.977       .  S
Cu295      Cu296   2.364       .  S
Cu296       O836   2.070       .  S
C297        C496   1.488       .  S
C298        C486   1.472       .  S
C299        O836   1.288       .  A
C299        C476   1.488       .  S
C300        C539   1.500       .  S
O301        C311   1.288       .  A
O301       Cu309   2.063       .  S
O302        C312   1.286       .  A
O302       Cu309   2.050       .  S
O303        C313   1.268       .  A
O303       Cu309   1.959       .  S
O304        C314   1.270       .  A
O304       Cu309   1.973       .  S
O305        C314   1.290       .  A
O305       Cu310   2.088       .  S
O306        C313   1.287       .  A
O306       Cu310   2.063       .  S
O307        C312   1.265       .  A
O307       Cu310   1.932       .  S
O308        C311   1.270       .  A
O308       Cu310   1.970       .  S
Cu309      Cu310   2.368       .  S
C311        C526   1.492       .  S
C312        C516   1.464       .  S
C313        C456   1.475       .  S
C314        C466   1.494       .  S
O315        C325   1.288       .  A
O315       Cu323   2.074   1_455  S
O316        C326   1.288   1_655  A
O316       Cu323   2.071       .  S
O317        C327   1.265   1_655  A
O317       Cu323   1.923       .  S
O318        C328   1.269       .  A
O318       Cu323   1.958   1_455  S
O319        C328   1.288       .  A
O319       Cu324   2.072       .  S
O320        C327   1.286       .  A
O320       Cu324   2.061       .  S
O321        C326   1.268       .  A
O321       Cu324   1.957       .  S
O322        C325   1.272       .  A
O322       Cu324   1.986       .  S
Cu323      Cu324   2.362   1_655  S
C325        C469   1.495       .  S
C326        C449   1.483       .  S
C327        C489   1.485       .  S
C328        C499   1.498       .  S
O329        C339   1.288       .  A
O329       Cu337   2.060       .  S
O330        C340   1.288   1_455  A
O330       Cu337   2.069       .  S
O331        C341   1.266   1_455  A
O331       Cu337   1.947       .  S
O332        C342   1.269       .  A
O332       Cu337   1.970       .  S
O333        C342   1.288   1_655  A
O333       Cu338   2.078       .  S
O334        C885   1.290       .  A
O334       Cu882   2.079       .  S
O335        C340   1.264       .  A
O335       Cu338   1.933       .  S
O336        C339   1.268   1_655  A
O336       Cu338   1.966       .  S
Cu337      Cu338   2.366   1_455  S
Cu338       O878   2.079       .  S
C339        C429   1.484       .  S
C340        C419   1.475       .  S
C341        O878   1.290       .  A
C341        C479   1.484       .  S
C342        C439   1.485       .  S
O343        C353   1.287       .  A
O343       Cu351   2.060       .  S
O344        C354   1.288       .  A
O344       Cu351   2.068       .  S
O345       Cu351   1.931       .  S
O346        C356   1.271       .  A
O346       Cu351   1.978       .  S
O347        C356   1.288       .  A
O348        C355   1.288       .  A
O348       Cu352   2.072       .  S
O349       Cu352   1.919       .  S
O350       Cu352   1.958       .  S
C355        C459   1.472       .  S
C356        C436   1.502       .  S
O357        C367   1.286       .  A
O357       Cu365   2.057       .  S
O358        C368   1.288       .  A
O358       Cu365   2.063       .  S
O359        C369   1.264       .  A
O359       Cu365   1.945       .  S
O360        C370   1.268       .  A
O360       Cu365   1.966       .  S
O361        C370   1.291       .  A
O361       Cu366   2.097       .  S
O362        C369   1.290       .  A
O362       Cu366   2.077       .  S
O363        C368   1.264       .  A
O363       Cu366   1.926       .  S
O364        C367   1.271       .  A
O364       Cu366   1.975       .  S
Cu365      Cu366   2.360       .  S
C367        C409   1.497       .  S
C368        C399   1.472       .  S
C369        C506   1.488       .  S
C370        C386   1.504       .  S
O371        C381   1.289       .  A
O371       Cu379   2.084       .  S
O372        C382   1.289       .  A
O372       Cu379   2.078       .  S
O373        C383   1.261       .  A
O373       Cu379   1.919       .  S
O374        C384   1.267       .  A
O374       Cu379   1.956       .  S
O375        C384   1.289       .  A
O375       Cu380   2.078       .  S
O376        C383   1.288       .  A
O376       Cu380   2.063       .  S
O377        C382   1.267       .  A
O377       Cu380   1.959       .  S
O378        C381   1.270       .  A
O378       Cu380   1.981       .  S
Cu379      Cu380   2.366       .  S
C381        C389   1.490       .  S
C382        C446   1.488       .  S
C383        C416   1.478       .  S
C384        C426   1.480       .  S
C385        C386   1.403       .  A
C385        C390   1.412       .  A
C385        H392   1.084       .  S
C386        C387   1.428       .  A
C387        C388   1.404       .  A
C387       Br394   1.924       .  S
C388        C389   1.396       .  A
C388        H393   1.084       .  S
C389        C390   1.417       .  A
C390       Br391   1.916       .  S
C395        C668   1.397       .  A
C395        H402   1.083       .  S
C396        C667   1.400       .  A
C396        C397   1.430       .  A
C397        C398   1.393   1_455  A
C397       Br404   1.928       .  S
C398        C943   1.390       .  A
C398        H403   1.083       .  S
C399        C942   1.390       .  A
C399        C400   1.417       .  A
C405        C406   1.416       .  A
C405        C410   1.401       .  A
C405        H412   1.083       .  S
C407       Br414   1.920       .  S
C408        C409   1.417       .  A
C409        C410   1.408       .  A
C410       Br411   1.921       .  S
C415        C416   1.395       .  A
C415        H422   1.083       .  S
C416        C961   1.425       .  A
C417        C960   1.425       .  A
C417        C418   1.395   1_565  A
C417       Br424   1.925       .  S
C418        H423   1.083       .  S
C419        C964   1.417       .  A
C420        C963   1.417       .  A
C420       Br421   1.925       .  S
C425        C426   1.401       .  A
C425        C430   1.408       .  A
C425        H432   1.085       .  S
C426        C971   1.414       .  A
C427        C970   1.414   1_455  A
C427        C428   1.397       .  A
C427       Br434   1.916       .  S
C428        C429   1.398       .  A
C428        H433   1.085       .  S
C429        C974   1.419   1_455  A
C430        C973   1.419       .  A
C430       Br431   1.919       .  S
C435        C436   1.411       .  A
C435        C440   1.401       .  A
C435        H442   1.085       .  S
C436        C437   1.416       .  A
C437        C438   1.412       .  A
C437       Br444   1.917       .  S
C438        C439   1.408       .  A
C438        H443   1.085       .  S
C439        C440   1.406       .  A
C440       Br441   1.920       .  S
C445        C990   1.399   1_455  A
C445        C450   1.403   1_554  A
C445        H452   1.084       .  S
C446        C989   1.399       .  A
C446        C447   1.421       .  A
C447        C448   1.401   1_554  A
C447       Br454   1.924       .  S
C448        C993   1.399       .  A
C448        H453   1.086       .  S
C449        C992   1.399   1_455  A
C449        C450   1.417       .  A
C450       Br451   1.919       .  S
C455        C456   1.399       .  A
C456        C457   1.416       .  A
C457        C458   1.397       .  A
C457       Br464   1.921       .  S
C458        C459   1.397       .  A
C458        H463   1.085       .  S
C460       Br461   1.920       .  S
C465        C466   1.414       .  A
C465        C470   1.407       .  A
C465        H472   1.084       .  S
C466        C467   1.405       .  A
C467        C468   1.409       .  A
C467       Br474   1.916       .  S
C468        C469   1.415       .  A
C468        H473   1.083       .  S
C469        C470   1.405       .  A
C470       Br471   1.917       .  S
C475       C1020   1.400   1_454  A
C475        C480   1.404       .  A
C475        H482   1.084   1_554  S
C476       C1019   1.400   1_556  A
C476        C477   1.422   1_556  A
C477        C478   1.401       .  A
C477       Br484   1.923   1_554  S
C478       C1023   1.397       .  A
C478        H483   1.084       .  S
C479       C1022   1.397       .  A
C479        C480   1.419   1_655  A
C480       Br481   1.921       .  S
C485       C1030   1.411       .  A
C485        H492   1.084   1_655  S
C486       C1029   1.411       .  A
C487        C488   1.391       .  A
C487       Br494   1.922   1_565  S
C488       C1033   1.416       .  A
C488        H493   1.083       .  S
C489       C1032   1.416   1_455  A
C489        C490   1.407       .  A
C490       Br491   1.920       .  S
C495       C1040   1.411       .  A
C495        C500   1.405       .  A
C495        H502   1.085       .  S
C496       C1039   1.411       .  A
C496        C497   1.403       .  A
C497        C498   1.401       .  A
C497       Br504   1.919       .  S
C498       C1043   1.416       .  A
C498        H503   1.084       .  S
C499       C1042   1.416   1_455  A
C499        C500   1.412       .  A
C500       Br501   1.919       .  S
C505        C506   1.398       .  A
C505        C510   1.402       .  A
C505        H512   1.085   1_565  S
C506        C507   1.426       .  A
C507        C508   1.399       .  A
C507       Br514   1.925       .  S
C508        C509   1.394       .  A
C508        H513   1.085       .  S
C509        C510   1.422       .  A
C515       C1060   1.390       .  A
C515        C520   1.392       .  A
C515        H522   1.087       .  S
C516       C1059   1.390       .  A
C516        C517   1.414       .  A
C518        C791   1.401       .  A
C518        H523   1.083       .  S
C519        C790   1.400       .  A
C519        C520   1.428       .  A
C520       Br521   1.929       .  S
C525        C526   1.415       .  A
C526        C527   1.403       .  A
C527        C528   1.399       .  A
C527       Br534   1.920       .  S
C528        C529   1.419       .  A
C528        H533   1.082       .  S
C530       Br531   1.919       .  S
C535        C536   1.411       .  A
C535        C540   1.418       .  A
C535        H542   1.082       .  S
C536        C537   1.418       .  A
C537        C538   1.400       .  A
C537       Br544   1.924       .  S
C538        C539   1.404       .  A
C538        H543   1.084       .  S
C539        C540   1.417       .  A
C540       Br541   1.917       .  S
O545        C555   1.290   1_565  A
O545       Cu825   2.104       .  S
O546        C556   1.289       .  A
O546       Cu553   2.083       .  S
O547        C829   1.259       .  A
O547       Cu553   1.918       .  S
O548        C830   1.268       .  A
O548       Cu553   1.950       .  S
O549        C558   1.289   1_545  A
O549       Cu554   2.082       .  S
O550        C557   1.290       .  A
O550       Cu554   2.082   1_565  S
O551        C828   1.261       .  A
O551       Cu554   1.920   1_565  S
O552        C555   1.269       .  A
O552       Cu554   1.961       .  S
Cu553       O817   2.089       .  S
Cu553      Cu826   2.360       .  S
Cu554      Cu825   2.350   1_545  S
C555        C808   1.510       .  S
C556        O823   1.266       .  A
C556        C781   1.479       .  S
C557        O819   1.258       .  A
C557       C1063   1.482       .  S
C558        O820   1.266       .  A
C558       C1073   1.502       .  S
O559        C569   1.287       .  A
O559       Cu567   2.062       .  S
O560        C570   1.286       .  A
O560       Cu567   2.053       .  S
O561        C571   1.267       .  A
O561       Cu567   1.952       .  S
O562        C572   1.270       .  A
O562       Cu567   1.966       .  S
O563        C572   1.290       .  A
O563       Cu568   2.091   1_655  S
O565        C570   1.265   1_455  A
O565       Cu568   1.923       .  S
O566        C569   1.271   1_455  A
O566       Cu568   1.978       .  S
Cu567      Cu568   2.364   1_655  S
C569        C768   1.495       .  S
C570        C758   1.470       .  S
C571        C748   1.482       .  S
C572        C811   1.494       .  S
O573        C583   1.287       .  A
O573       Cu581   2.063       .  S
O574        C584   1.287       .  A
O574       Cu581   2.056       .  S
O575        C585   1.268       .  A
O575       Cu581   1.960       .  S
O576        C586   1.269       .  A
O576       Cu581   1.968       .  S
O577        C586   1.289       .  A
O577       Cu582   2.086       .  S
O578        C585   1.287       .  A
O578       Cu582   2.065       .  S
O579        C584   1.264       .  A
O579       Cu582   1.923       .  S
O580        C583   1.270       .  A
O580       Cu582   1.972       .  S
Cu581      Cu582   2.368       .  S
C583        C798   1.486       .  S
C584        C788   1.466       .  S
C585        C728   1.476       .  S
C586        C738   1.491       .  S
O587        C597   1.288       .  A
O587       Cu595   2.083       .  S
O588        C598   1.289       .  A
O588       Cu595   2.075       .  S
O589        C599   1.266       .  A
O589       Cu595   1.935       .  S
O590        C600   1.271       .  A
O590       Cu595   1.970       .  S
O591        C600   1.287       .  A
O591       Cu596   2.066       .  S
O592        C599   1.287       .  A
O592       Cu596   2.064       .  S
O593        C598   1.266       .  A
O593       Cu596   1.944       .  S
O594        C597   1.272       .  A
O594       Cu596   1.980       .  S
Cu595      Cu596   2.359       .  S
C597        C741   1.510       .  S
C598        C721   1.482       .  S
C599        C761   1.489       .  S
C600        C771   1.502       .  S
O601        C611   1.288       .  A
O601       Cu609   2.059       .  S
O602        C612   1.287       .  A
O602       Cu609   2.061       .  S
O603        C613   1.266       .  A
O603       Cu609   1.947       .  S
O604        C614   1.272       .  A
O604       Cu609   1.986       .  S
O605        C614   1.288       .  A
O605       Cu610   2.075       .  S
O607        C612   1.262       .  A
O607       Cu610   1.917       .  S
O608        C611   1.268       .  A
O608       Cu610   1.966       .  S
Cu609      Cu610   2.365       .  S
C611        C701   1.493       .  S
C612        C691   1.474       .  S
C613        C751   1.481       .  S
C614        C711   1.495       .  S
O615        C625   1.288   1_545  A
O615       Cu623   2.068       .  S
O616        C626   1.289   1_545  A
O616       Cu623   2.078       .  S
O617        C899   1.265       .  A
O617       Cu623   1.937   1_565  S
O618        C628   1.272       .  A
O618       Cu623   1.987       .  S
O619        C628   1.287   1_565  A
O619       Cu896   2.073       .  S
O620        C627   1.288       .  A
O620       Cu624   2.073       .  S
O621        C898   1.263       .  A
O621       Cu624   1.928       .  S
O622        C897   1.270       .  A
O622       Cu624   1.964       .  S
Cu623      Cu896   2.362   1_545  S
Cu624       O891   2.078       .  S
Cu624      Cu895   2.362       .  S
C625        O894   1.269       .  A
C625        C950   1.498       .  S
C626        O893   1.260       .  A
C626        C940   1.487       .  S
C627        O889   1.264       .  A
C627        C731   1.471       .  S
C628        C708   1.498       .  S
O629        C639   1.289       .  A
O629       Cu637   2.074       .  S
O630        C640   1.286       .  A
O630       Cu637   2.058       .  S
O631        C641   1.269       .  A
O631       Cu637   1.972       .  S
O632        C642   1.271       .  A
O632       Cu637   1.988       .  S
O633        C642   1.287       .  A
O633       Cu638   2.077       .  S
O634        C641   1.287       .  A
O634       Cu638   2.069       .  S
O635        C640   1.265       .  A
O635       Cu638   1.929       .  S
O636        C639   1.269       .  A
O636       Cu638   1.964       .  S
Cu637      Cu638   2.368       .  S
C639        C681   1.495       .  S
C640        C671   1.473       .  S
C641        C778   1.483       .  S
C642        C658   1.489       .  S
O643        C653   1.290       .  A
O643       Cu651   2.088       .  S
O644        C654   1.288       .  A
O644       Cu651   2.065       .  S
O645        C655   1.264       .  A
O645       Cu651   1.928       .  S
O646        C656   1.268       .  A
O646       Cu651   1.963       .  S
O647        C656   1.288       .  A
O647       Cu652   2.074       .  S
O648        C655   1.287       .  A
O648       Cu652   2.066       .  S
O649        C654   1.269       .  A
O649       Cu652   1.973       .  S
O650        C653   1.270       .  A
O650       Cu652   1.974       .  S
Cu651      Cu652   2.358       .  S
C653        C661   1.503       .  S
C654        C718   1.487       .  S
C655        C688   1.465       .  S
C656        C698   1.485       .  S
C657        C658   1.396       .  A
C657        C662   1.404       .  A
C657        H664   1.084       .  S
C658        C659   1.415       .  A
C659        C660   1.411       .  A
C659       Br666   1.913       .  S
C660        C661   1.404       .  A
C660        H665   1.084       .  S
C661        C662   1.427       .  A
C662       Br663   1.924       .  S
C667        C944   1.400   1_455  A
C667        H674   1.083   1_565  S
C668        C898   1.482       .  S
C668        C669   1.427       .  A
C669        C670   1.396       .  A
C669       Br676   1.925       .  S
C670        H675   1.084       .  S
C671        C672   1.417       .  A
C672        C939   1.396   1_655  A
C672       Br945   1.922       .  S
Br673       C944   1.922   1_545  S
C677        C678   1.418       .  A
C677        C682   1.403       .  A
C677        H684   1.083       .  S
C678        C897   1.500       .  S
C678        C951   1.410       .  A
C679        C950   1.407   1_545  A
C679        C952   1.405   1_545  A
C679       Br686   1.918       .  S
C680        C951   1.403       .  A
C680        C681   1.414       .  A
C680        H957   1.083       .  S
C681        C682   1.405       .  A
C682       Br683   1.919       .  S
H685        C952   1.083   1_545  S
C687        C688   1.397       .  A
C687        C964   1.395       .  A
C687        H694   1.083       .  S
C689        C690   1.402       .  A
C689       Br696   1.919       .  S
C690        C963   1.400       .  A
C690        H695   1.083       .  S
C691        C962   1.393       .  A
C692        C959   1.394   1_545  A
C692       Br693   1.925       .  S
C697        C698   1.399       .  A
C697        C702   1.408       .  A
C697        H704   1.086       .  S
C699        C700   1.398       .  A
C699       Br706   1.921       .  S
C700        C701   1.400       .  A
C700        H705   1.085       .  S
C702       Br703   1.921       .  S
C707        C708   1.407       .  A
C707        C712   1.403       .  A
C707        H714   1.084       .  S
C708        C709   1.415       .  A
C709        C710   1.414       .  A
C709       Br716   1.919   1_545  S
C710        C711   1.409       .  A
C710        H715   1.084       .  S
C711        C712   1.412       .  A
C712       Br713   1.921       .  S
C717        C722   1.401   1_554  A
C717        H724   1.085       .  S
C718        C719   1.420       .  A
C719        C720   1.403   1_554  A
C719       Br726   1.922       .  S
C720        H725   1.086       .  S
C721        C722   1.417       .  A
C722       Br723   1.922       .  S
C727        C728   1.399       .  A
C727       C1004   1.404       .  A
C727       H1006   1.084       .  S
C728        C729   1.416       .  A
C729        C730   1.397       .  A
C729       Br736   1.920       .  S
C730        C731   1.397       .  A
C730        H735   1.085       .  S
C731       C1004   1.416       .  A
C732        C999   1.404       .  A
C732       C1003   1.416       .  A
C732       Br733   1.920       .  S
H734        C999   1.084       .  S
C737        C738   1.410       .  A
C737        C742   1.416       .  A
C737        H744   1.081       .  S
C738        C739   1.407       .  A
C739        C740   1.400       .  A
C739       Br746   1.920       .  S
C740        C741   1.413       .  A
C740        H745   1.081       .  S
C741        C742   1.418       .  A
C742       Br743   1.916       .  S
C747        C752   1.405   1_556  A
C747        H754   1.083       .  S
C748        C749   1.419       .  A
C749        C750   1.397   1_556  A
C749       Br756   1.924       .  S
C750        H755   1.083       .  S
C751        C752   1.420       .  A
C752       Br753   1.921       .  S
C757       C1034   1.399       .  A
C757        H764   1.084   1_565  S
C758       C1031   1.401   1_545  A
C759       C1030   1.402       .  A
C759        C760   1.395       .  A
C759       Br766   1.921       .  S
C760        H765   1.083       .  S
C761        C762   1.409       .  A
C762       C1029   1.400       .  A
C762       Br763   1.919       .  S
C767        C772   1.406       .  A
C767        H774   1.084       .  S
C768        C769   1.405       .  A
C769        C770   1.402       .  A
C769       Br776   1.919       .  S
C770        H775   1.083       .  S
C771        C772   1.411       .  A
C772       Br773   1.920       .  S
C777        C778   1.400       .  A
C777        C782   1.406       .  A
C777        H784   1.085       .  S
C778        C779   1.417       .  A
C779        C780   1.400       .  A
C779       Br786   1.919       .  S
C780        C781   1.398       .  A
C780        H785   1.086       .  S
C781        C782   1.416       .  A
C782      Br1055   1.916       .  S
Br783      C1054   1.923   1_545  S
C787        C792   1.393   1_455  A
C787        H794   1.084       .  S
C788        C789   1.415       .  A
C789       C1062   1.398       .  A
C789      Br1068   1.922       .  S
C790       C1061   1.400       .  A
C790        H795   1.085       .  S
C791        C829   1.485       .  S
C791        C792   1.430       .  A
C792       Br793   1.927       .  S
Br796      C1061   1.920       .  S
C797        C798   1.411       .  A
C797       C1074   1.405       .  A
C797       H1076   1.082       .  S
C798        C799   1.402       .  A
C799        C800   1.401       .  A
C799       Br806   1.918       .  S
C800        C801   1.417       .  A
C800        H805   1.082       .  S
C801        C830   1.497       .  S
C801       C1074   1.411       .  A
C802       C1069   1.407   1_545  A
C802       C1073   1.410   1_545  A
C802       Br803   1.919       .  S
H804       C1069   1.083   1_545  S
C807        C808   1.412       .  A
C807        C812   1.397       .  A
C807        H814   1.083       .  S
C808        C809   1.418       .  A
C809        C810   1.421       .  A
C809       Br816   1.917   1_545  S
C810        C811   1.414       .  A
C810        H815   1.083       .  S
C811        C812   1.406       .  A
C812       Br813   1.922       .  S
O817        C827   1.289       .  A
O818        C828   1.292       .  A
O818       Cu825   2.094       .  S
O819       Cu825   1.910       .  S
O820       Cu825   1.939       .  S
O821        C830   1.288       .  A
O821       Cu826   2.070       .  S
O822        C829   1.289       .  A
O822       Cu826   2.073       .  S
O823       Cu826   1.948       .  S
O824        C827   1.271       .  A
O824       Cu826   1.981       .  S
C827       C1080   1.505       .  S
C828       C1053   1.482       .  S
O831        C841   1.287       .  A
O831       Cu839   2.062       .  S
O832        C842   1.286       .  A
O832       Cu839   2.059       .  S
O833        C843   1.268       .  A
O833       Cu839   1.968       .  S
O834        C844   1.271       .  A
O834       Cu839   1.969       .  S
O835        C844   1.290       .  A
O835       Cu840   2.093   1_655  S
O837        C842   1.266       .  A
O837       Cu840   1.926   1_655  S
O838        C841   1.270   1_455  A
O838       Cu840   1.977       .  S
Cu839      Cu840   2.364   1_655  S
C841       C1040   1.488   1_655  S
C842       C1030   1.472       .  S
C843       C1020   1.488       .  S
C844       C1083   1.500       .  S
O845        C855   1.288       .  A
O845       Cu853   2.063       .  S
O846        C856   1.286       .  A
O846       Cu853   2.050       .  S
O847        C857   1.268       .  A
O847       Cu853   1.959       .  S
O848        C858   1.270       .  A
O848       Cu853   1.973       .  S
O849        C858   1.290       .  A
O849       Cu854   2.088       .  S
O850        C857   1.287       .  A
O850       Cu854   2.063       .  S
O851        C856   1.265       .  A
O851       Cu854   1.932       .  S
O852        C855   1.270       .  A
O852       Cu854   1.970       .  S
Cu853      Cu854   2.368       .  S
C855       C1070   1.492       .  S
C856       C1060   1.464       .  S
C857       C1000   1.475       .  S
C858       C1010   1.494       .  S
O859        C869   1.288       .  A
O859       Cu867   2.074       .  S
O860        C870   1.288       .  A
O860       Cu867   2.071       .  S
O861        C871   1.265       .  A
O861       Cu867   1.923       .  S
O862        C872   1.269       .  A
O862       Cu867   1.958       .  S
O863        C872   1.288       .  A
O863       Cu868   2.072       .  S
O864        C871   1.286       .  A
O864       Cu868   2.061       .  S
O865        C870   1.268       .  A
O865       Cu868   1.957       .  S
O866        C869   1.272       .  A
O866       Cu868   1.986       .  S
Cu867      Cu868   2.362       .  S
C869       C1013   1.495       .  S
C870        C993   1.483       .  S
C871       C1033   1.485       .  S
C872       C1043   1.498       .  S
O873        C883   1.288       .  A
O873       Cu881   2.060       .  S
O874        C884   1.288       .  A
O874       Cu881   2.069       .  S
O875        C885   1.266       .  A
O875       Cu881   1.947       .  S
O876        C886   1.269       .  A
O876       Cu881   1.970       .  S
O877        C886   1.288       .  A
O877       Cu882   2.078       .  S
O879        C884   1.264       .  A
O879       Cu882   1.933       .  S
O880        C883   1.268       .  A
O880       Cu882   1.966       .  S
Cu881      Cu882   2.366       .  S
C883        C973   1.484       .  S
C884        C963   1.475       .  S
C885       C1023   1.484       .  S
C886        C983   1.485       .  S
O887        C897   1.287       .  A
O887       Cu895   2.060       .  S
O888        C898   1.288       .  A
O888       Cu895   2.068       .  S
O889       Cu895   1.931       .  S
O890        C900   1.271       .  A
O890       Cu895   1.978       .  S
O891        C900   1.288       .  A
O892        C899   1.288       .  A
O892       Cu896   2.072       .  S
O893       Cu896   1.919       .  S
O894       Cu896   1.958       .  S
C899       C1003   1.472       .  S
C900        C980   1.502       .  S
O901        C911   1.286       .  A
O901       Cu909   2.057       .  S
O902        C912   1.288       .  A
O902       Cu909   2.063       .  S
O903        C913   1.264       .  A
O903       Cu909   1.945       .  S
O904        C914   1.268       .  A
O904       Cu909   1.966       .  S
O905        C914   1.291       .  A
O905       Cu910   2.097       .  S
O906        C913   1.290       .  A
O906       Cu910   2.077       .  S
O907        C912   1.264       .  A
O907       Cu910   1.926       .  S
O908        C911   1.271       .  A
O908       Cu910   1.975       .  S
Cu909      Cu910   2.360       .  S
C911        C953   1.497       .  S
C912        C943   1.472       .  S
C913       C1050   1.488       .  S
C914        C930   1.504       .  S
O915        C925   1.289   1_455  A
O915       Cu923   2.084       .  S
O916        C926   1.289   1_455  A
O916       Cu923   2.078       .  S
O917        C927   1.261   1_455  A
O917       Cu923   1.919       .  S
O918        C928   1.267   1_455  A
O918       Cu923   1.956       .  S
O919        C928   1.289       .  A
O919       Cu924   2.078       .  S
O920        C927   1.288       .  A
O920       Cu924   2.063       .  S
O921        C926   1.267       .  A
O921       Cu924   1.959       .  S
O922        C925   1.270       .  A
O922       Cu924   1.981       .  S
Cu923      Cu924   2.366   1_455  S
C925        C933   1.490       .  S
C926        C990   1.488       .  S
C927        C960   1.478   1_655  S
C928        C970   1.480       .  S
C929        C930   1.403       .  A
C929        C934   1.412       .  A
C929        H936   1.084       .  S
C930        C931   1.428       .  A
C931        C932   1.404       .  A
C931       Br938   1.924       .  S
C932        C933   1.396       .  A
C932        H937   1.084       .  S
C933        C934   1.417       .  A
C934       Br935   1.916       .  S
C939        H946   1.083       .  S
C940        C941   1.430       .  A
C941        C942   1.393       .  A
C941       Br948   1.928       .  S
C942        H947   1.083       .  S
C943        C944   1.417       .  A
C949        C950   1.416       .  A
C949        C954   1.401       .  A
C949        H956   1.083       .  S
C951       Br958   1.920       .  S
C952        C953   1.417       .  A
C953        C954   1.408       .  A
C954       Br955   1.921       .  S
C959        C960   1.395   1_655  A
C959        H966   1.083       .  S
C961        C962   1.395   1_565  A
C961       Br968   1.925       .  S
C962        H967   1.083       .  S
C964       Br965   1.925       .  S
C969        C970   1.401       .  A
C969        C974   1.408       .  A
C969        H976   1.085       .  S
C971        C972   1.397       .  A
C971       Br978   1.916       .  S
C972        C973   1.398       .  A
C972        H977   1.085       .  S
C974       Br975   1.919       .  S
C979        C980   1.411       .  A
C979        C984   1.401       .  A
C979        H986   1.085       .  S
C980        C981   1.416       .  A
C981        C982   1.412       .  A
C981       Br988   1.917       .  S
C982        C983   1.408       .  A
C982        H987   1.085       .  S
C983        C984   1.406       .  A
C984       Br985   1.920       .  S
C989        C994   1.403   1_554  A
C989        H996   1.084       .  S
C990        C991   1.421       .  A
C991        C992   1.401   1_554  A
C991       Br998   1.924       .  S
C992        H997   1.086       .  S
C993        C994   1.417       .  A
C994       Br995   1.919       .  S
C999       C1000   1.399       .  A
C1000      C1001   1.416       .  A
C1001      C1002   1.397       .  A
C1001     Br1008   1.921       .  S
C1002      C1003   1.397       .  A
C1002      H1007   1.085       .  S
C1004     Br1005   1.920       .  S
C1009      C1010   1.414       .  A
C1009      C1014   1.407       .  A
C1009      H1016   1.084       .  S
C1010      C1011   1.405       .  A
C1011      C1012   1.409       .  A
C1011     Br1018   1.916       .  S
C1012      C1013   1.415       .  A
C1012      H1017   1.083       .  S
C1013      C1014   1.405       .  A
C1014     Br1015   1.917       .  S
C1019      C1024   1.404       .  A
C1019      H1026   1.084   1_554  S
C1020      C1021   1.422   1_556  A
C1021      C1022   1.401       .  A
C1021     Br1028   1.923   1_554  S
C1022      H1027   1.084       .  S
C1023      C1024   1.419       .  A
C1024     Br1025   1.921       .  S
C1029      H1036   1.084       .  S
C1031      C1032   1.391       .  A
C1031     Br1038   1.922   1_565  S
C1032      H1037   1.083       .  S
C1033      C1034   1.407       .  A
C1034     Br1035   1.920       .  S
C1039      C1044   1.405       .  A
C1039      H1046   1.085       .  S
C1040      C1041   1.403   1_455  A
C1041      C1042   1.401       .  A
C1041     Br1048   1.919       .  S
C1042      H1047   1.084       .  S
C1043      C1044   1.412       .  A
C1044     Br1045   1.919       .  S
C1049      C1050   1.398       .  A
C1049      C1054   1.402       .  A
C1049      H1056   1.085   1_565  S
C1050      C1051   1.426       .  A
C1051      C1052   1.399       .  A
C1051     Br1058   1.925       .  S
C1052      C1053   1.394       .  A
C1052      H1057   1.085       .  S
C1053      C1054   1.422       .  A
C1059      C1064   1.392   1_455  A
C1059      H1066   1.087       .  S
C1060      C1061   1.414       .  A
C1062      H1067   1.083       .  S
C1063      C1064   1.428       .  A
C1064     Br1065   1.929       .  S
C1069      C1070   1.415       .  A
C1070      C1071   1.403       .  A
C1071      C1072   1.399       .  A
C1071     Br1078   1.920       .  S
C1072      C1073   1.419       .  A
C1072      H1077   1.082       .  S
C1074     Br1075   1.919       .  S
C1079      C1080   1.411       .  A
C1079      C1084   1.418       .  A
C1079      H1086   1.082       .  S
C1080      C1081   1.418       .  A
C1081      C1082   1.400       .  A
C1081     Br1088   1.924       .  S
C1082      C1083   1.404       .  A
C1082      H1087   1.084       .  S
C1083      C1084   1.417       .  A
C1084     Br1085   1.917       .  S
