geometry optimzed in LAMMPS
_audit_creation_date              2020-12-01 
_audit_creation_method            'lammps2cif' 
_symmetry_space_group_name_H-M    'P1' 
_symmetry_Int_Tables_number       1 
_symmetry_cell_setting            triclinic 
loop_ 
_symmetry_equiv_pos_as_xyz 
  x,y,z 
_cell_length_a                    33.54102973 
_cell_length_b                    32.715654737641074 
_cell_length_c                    74.40590655872187 
_cell_angle_alpha                 90.06035582603191 
_cell_angle_beta                  89.8926552978002 
_cell_angle_gamma                 90.07787357895904 
loop_ 
_atom_site_label 
_atom_site_type_symbol 
_atom_site_fract_x 
_atom_site_fract_y 
_atom_site_fract_z 
_atom_site_charge 
O1          O  0.92156330  0.83148328  0.28890646    -0.56400
C2          C  0.87454431  0.71728517  0.27568651     0.76200
O3          O  0.97143243  0.71777601  0.31165718    -0.57500
C4          C  0.93762395  0.84841834  0.30243227     0.76200
C5          C  0.85951786  0.75534623  0.33385313     0.78600
Cd6        Cd  0.91425562  0.76352397  0.30357665     1.37500
O7          O  0.86608705  0.75471898  0.27792571    -0.56400
O8          O  0.85202151  0.77585958  0.31986895    -0.55200
C9          C  0.99381615  0.73149436  0.29924146     0.78600
O10         O  0.89348987  0.73828824  0.33426966    -0.57600
O11         O  0.90073625  0.70277816  0.28603704    -0.56000
O12         O  0.94048972  0.82671836  0.31646117    -0.56000
O13         O  0.97969158  0.76007810  0.28979640    -0.55200
O14         O  0.07891884  0.14768321  0.29573056    -0.56400
C15         C  0.11739137  0.26570928  0.28353740     0.76200
O16         O  0.02737464  0.26526474  0.31871801    -0.57500
C17         C  0.05686615  0.13179005  0.30774647     0.76200
C18         C  0.14180455  0.21545542  0.33918677     0.78600
Cd19       Cd  0.08194465  0.21538803  0.31088634     1.37500
O20         O  0.11984749  0.22705875  0.28257300    -0.56400
O21         O  0.14832703  0.20277625  0.32340725    -0.55200
C22         C  0.00281829  0.24990351  0.30758826     0.78600
O23         O  0.10650555  0.22758278  0.34237143    -0.57600
O24         O  0.09915702  0.28008847  0.29700587    -0.56000
O25         O  0.04941961  0.15369620  0.32139903    -0.56000
O26         O  0.01435666  0.21848240  0.29919254    -0.55200
O27         O  0.43588205  0.14069407  0.47217499    -0.56400
C28         C  0.38819870  0.24953532  0.49069806     0.76200
O29         O  0.47055927  0.26466630  0.45191773    -0.57500
C30         C  0.45144945  0.12673732  0.45787029     0.76200
C31         C  0.36234754  0.21601339  0.43207867     0.78600
Cd32       Cd  0.42259408  0.20944257  0.45978171     1.37500
O33         O  0.41196072  0.26653279  0.47986340    -0.56400
O34         O  0.35688698  0.19733549  0.44675075    -0.55200
C35         C  0.49817929  0.24994622  0.46160390     0.78600
O36         O  0.39635266  0.23239271  0.42998839    -0.57600
O37         O  0.38001186  0.21231728  0.48760001    -0.56000
O38         O  0.45192271  0.15053012  0.44446334    -0.56000
O39         O  0.49123424  0.21591794  0.46902516    -0.55200
O40         O  0.58656257  0.82693341  0.46730390    -0.56400
C41         C  0.61414369  0.70807762  0.48566014     0.76200
O42         O  0.52136216  0.71188634  0.44996657    -0.57500
C43         C  0.56506351  0.84129471  0.45478755     0.76200
C44         C  0.64304510  0.74372890  0.42890370     0.78600
Cd45       Cd  0.58227099  0.75520453  0.45656878     1.37500
O46         O  0.61865639  0.74664105  0.48545263    -0.56400
O47         O  0.65066595  0.75577421  0.44468118    -0.55200
C48         C  0.50157497  0.72655389  0.46309387     0.78600
O49         O  0.60657291  0.73616900  0.42560658    -0.57600
O50         O  0.59572769  0.69249805  0.47249153    -0.56000
O51         O  0.55359157  0.81615058  0.44291217    -0.56000
O52         O  0.51862578  0.75448447  0.47199102    -0.55200
O53         O  0.27163388  0.96028278  0.69852847    -0.56400
C54         C  0.23006827  0.83982454  0.68038440     0.76200
O55         O  0.24669954  0.86920572  0.73768770    -0.57500
C56         C  0.25877784  0.98445061  0.71059915     0.76200
C57         C  0.14392278  0.92216571  0.71060844     0.78600
Cd58       Cd  0.22808962  0.90221606  0.70844976     1.37500
O59         O  0.23826656  0.87692091  0.67690552    -0.56400
O60         O  0.16518632  0.92855198  0.69680785    -0.55200
C61         C  0.28403145  0.87246373  0.73498093     0.78600
O62         O  0.16112344  0.90429579  0.72363695    -0.57600
O63         O  0.22140454  0.83211319  0.69660242    -0.56000
O64         O  0.23060580  0.97125684  0.72030411    -0.56000
O65         O  0.29433728  0.88817597  0.72017165    -0.55200
O66         O  0.76755002  0.08947400  0.68059177    -0.56400
C67         C  0.75232773  0.98520008  0.71522395     0.76200
O68         O  0.85120944  0.06518178  0.72524680    -0.57500
C69         C  0.78069640  0.12558849  0.68266970     0.76200
C70         C  0.72523524  0.10060419  0.73768161     0.78600
Cd71       Cd  0.78200427  0.06707578  0.71199090     1.37500
O72         O  0.74241759  0.00697315  0.70181366    -0.56400
O73         O  0.71555498  0.08445751  0.72287320    -0.55200
C74         C  0.86490502  0.04213687  0.71289613     0.78600
O75         O  0.76247744  0.10274592  0.74081369    -0.57600
O76         O  0.77610979  0.00121995  0.72637857    -0.56000
O77         O  0.79436402  0.13401032  0.69809875    -0.56000
O78         O  0.84107465  0.03359268  0.70027306    -0.55200
O79         O  0.75723935  0.37786391  0.58835699    -0.56400
C80         C  0.73936065  0.48673954  0.55531219     0.76200
O81         O  0.83964554  0.40668948  0.54472153    -0.57500
C82         C  0.77075154  0.34234637  0.58508497     0.76200
C83         C  0.71799612  0.37666407  0.53017241     0.78600
Cd84       Cd  0.77129674  0.40578989  0.55773231     1.37500
O85         O  0.72780600  0.46317801  0.56788828    -0.56400
O86         O  0.70629010  0.39161812  0.54493566    -0.55200
C87         C  0.85398792  0.42978492  0.55686242     0.78600
O88         O  0.75550368  0.37360537  0.52810060    -0.57600
O89         O  0.76659719  0.47338269  0.54510602    -0.56000
O90         O  0.78380139  0.33656437  0.56932046    -0.56000
O91         O  0.83038187  0.44018576  0.56935714    -0.55200
O92         O  0.24068601  0.58479942  0.58594235    -0.56400
C93         C  0.25349627  0.47688309  0.55168495     0.76200
O94         O  0.15293088  0.55308845  0.54285609    -0.57500
C95         C  0.22165337  0.61822865  0.58456660     0.76200
C96         C  0.27298681  0.59839392  0.52984086     0.78600
Cd97       Cd  0.22118550  0.55803216  0.55571645     1.37500
O98         O  0.26155083  0.49761903  0.56568033    -0.56400
O99         O  0.28395131  0.58631241  0.54518968    -0.55200
C100        C  0.13854732  0.53285497  0.55594661     0.78600
O101        O  0.23654305  0.59240353  0.52596346    -0.57600
O102        O  0.23073804  0.49367783  0.54037565    -0.56000
O103        O  0.20208572  0.62300791  0.57016801    -0.56000
O104        O  0.16199322  0.52592760  0.56891397    -0.55200
O105        O  0.91433982  0.63903744  0.97150852    -0.56400
C106        C  0.88302973  0.75423254  0.99158723     0.76200
O107        O  0.96658836  0.76195806  0.95306893    -0.57500
C108        C  0.93573407  0.62570248  0.95868641     0.76200
C109        C  0.85329470  0.72026019  0.93289152     0.78600
Cd110      Cd  0.91397604  0.71090230  0.96049371     1.37500
O111        O  0.87647083  0.71630480  0.98961536    -0.56400
O112        O  0.84727572  0.70248439  0.94770336    -0.55200
C113        C  0.99359347  0.74379654  0.96194717     0.78600
O114        O  0.88810372  0.73454665  0.93054708    -0.57600
O115        O  0.90453817  0.77089774  0.97972513    -0.56000
O116        O  0.94509914  0.65124369  0.94661735    -0.56000
O117        O  0.98418131  0.70983815  0.96888038    -0.55200
O118        O  0.07002243  0.32707371  0.97372449    -0.56400
C119        C  0.11385274  0.21039860  0.98920510     0.76200
O120        O  0.02116419  0.21251681  0.95261067    -0.57500
C121        C  0.05364586  0.34207827  0.95984102     0.76200
C122        C  0.13809481  0.25093161  0.93185490     0.78600
Cd123      Cd  0.07898777  0.25792079  0.96054871     1.37500
O124        O  0.11946565  0.24878584  0.98861862    -0.56400
O125        O  0.14431590  0.27017889  0.94636374    -0.55200
C126        C  0.99938340  0.22629590  0.96525616     0.78600
O127        O  0.10382018  0.23470221  0.93030621    -0.57600
O128        O  0.09329278  0.19527045  0.97662313    -0.56000
O129        O  0.05190066  0.31904245  0.94616331    -0.56000
O130        O  0.01399795  0.25500925  0.97450748    -0.55200
O131        O  0.57901311  0.64061659  0.79302970    -0.56400
C132        C  0.62235445  0.75683364  0.77855589     0.76200
O133        O  0.53283904  0.76149193  0.81475081    -0.57500
C134        C  0.55895633  0.62577474  0.80596807     0.76200
C135        C  0.64154269  0.71683676  0.83624514     0.78600
Cd136      Cd  0.58512842  0.71006800  0.80679502     1.37500
O137        O  0.62802795  0.71849489  0.77929103    -0.56400
O138        O  0.65103801  0.70375173  0.82081836    -0.55200
C139        C  0.50861793  0.74871928  0.80289982     0.78600
O140        O  0.60521764  0.72651583  0.83835552    -0.57600
O141        O  0.60023605  0.77189617  0.79060767    -0.56000
O142        O  0.55327426  0.64926488  0.81925402    -0.56000
O143        O  0.51921443  0.71763172  0.79399407    -0.55200
O144        O  0.42187164  0.32380186  0.79371547    -0.56400
C145        C  0.38494354  0.20821660  0.77899131     0.76200
O146        O  0.46972142  0.20366856  0.81591892    -0.57500
C147        C  0.44026229  0.34053363  0.80668844     0.76200
C148        C  0.35565639  0.25035655  0.83654836     0.78600
Cd149      Cd  0.41686491  0.25548761  0.80839277     1.37500
O150        O  0.37984575  0.24663346  0.77947102    -0.56400
O151        O  0.34913586  0.26433611  0.82099446    -0.55200
C152        C  0.49586453  0.21980522  0.80577335     0.78600
O153        O  0.39117468  0.23872412  0.83947612    -0.57600
O154        O  0.40396677  0.19283273  0.79195688    -0.56000
O155        O  0.44553042  0.31852128  0.82049476    -0.56000
O156        O  0.48628208  0.25318079  0.79843508    -0.55200
O157        O  0.73665372  0.08889066  0.08607667    -0.56400
C158        C  0.74499085  0.98068329  0.05284624     0.76200
O159        O  0.64894323  0.05995612  0.04042749    -0.57500
C160        C  0.72194370  0.12440266  0.08424235     0.76200
C161        C  0.76873776  0.09757057  0.02893035     0.78600
Cd162      Cd  0.71540776  0.06341241  0.05561841     1.37500
O163        O  0.75330141  0.00229310  0.06656132    -0.56400
O164        O  0.77986895  0.07386844  0.04132832    -0.55200
C165        C  0.63149970  0.04238010  0.05347133     0.78600
O166        O  0.73179185  0.10599286  0.02853180    -0.57600
O167        O  0.72208180  0.99684552  0.04139308    -0.56000
O168        O  0.70407279  0.13091634  0.06956245    -0.56000
O169        O  0.65236011  0.03677061  0.06742760    -0.55200
O170        O  0.22361781  0.96072439  0.06809096    -0.56400
C171        C  0.26918777  0.84430270  0.08557217     0.76200
O172        O  0.25370554  0.86694097  0.02871287    -0.57500
C173        C  0.23691106  0.98631652  0.05673058     0.76200
C174        C  0.35050099  0.92958488  0.05406155     0.78600
Cd175      Cd  0.26844791  0.90475099  0.05727852     1.37500
O176        O  0.25624827  0.88011091  0.08856649    -0.56400
O177        O  0.33008514  0.93432562  0.06824773    -0.55200
C178        C  0.21615630  0.86840994  0.03077754     0.78600
O179        O  0.33364102  0.91052797  0.04126457    -0.57600
O180        O  0.28222141  0.83752857  0.06989481    -0.56000
O181        O  0.26474332  0.97414549  0.04660038    -0.56000
O182        O  0.20388922  0.88670488  0.04469816    -0.55200
O183        O  0.75961895  0.46228154  0.20133380    -0.56400
C184        C  0.72657171  0.34093346  0.18206813     0.76200
O185        O  0.73769158  0.36070892  0.23946722    -0.57500
C186        C  0.74789178  0.48408199  0.21448024     0.76200
C187        C  0.63869313  0.42369941  0.21278144     0.78600
Cd188      Cd  0.72156637  0.40046553  0.21128717     1.37500
O189        O  0.73957755  0.37715868  0.18013980    -0.56400
O190        O  0.65995141  0.42822193  0.19883912    -0.55200
C191        C  0.77509928  0.36600107  0.23793712     0.78600
O192        O  0.65492296  0.40524135  0.22588426    -0.57600
O193        O  0.71088939  0.33295535  0.19716512    -0.56000
O194        O  0.72436935  0.46713869  0.22548346    -0.56000
O195        O  0.78640729  0.38624308  0.22437549    -0.55200
O196        O  0.23604644  0.50935231  0.20187467    -0.56400
C197        C  0.27894046  0.62463734  0.18083778     0.76200
O198        O  0.26331197  0.61042403  0.23791117    -0.57500
C199        C  0.24804510  0.48720414  0.21481444     0.76200
C200        C  0.36080654  0.54225850  0.21300599     0.78600
Cd201      Cd  0.27919499  0.56805036  0.21061948     1.37500
O202        O  0.26292439  0.58962480  0.17929982    -0.56400
O203        O  0.33764156  0.53145329  0.20044149    -0.55200
C204        C  0.22594235  0.60504927  0.23640999     0.78600
O205        O  0.34677015  0.56732172  0.22445187    -0.57600
O206        O  0.29519380  0.63235195  0.19578124    -0.56000
O207        O  0.27459565  0.50228893  0.22489685    -0.56000
O208        O  0.21459053  0.58351974  0.22327784    -0.55200
C209        C  0.46983626  0.52608677  0.22540990    -0.26800
C210        C  0.47921603  0.49159219  0.21495363     0.06800
C211        C  0.44920099  0.47329941  0.20455097     0.26500
C212        C  0.41101369  0.49010859  0.20408690    -0.11300
C213        C  0.40166388  0.52524919  0.21413346    -0.25200
C214        C  0.43134782  0.54285375  0.22504874     0.37300
C215        C  0.52033594  0.47501261  0.21457516     0.06900
F216        F  0.45670098  0.43876229  0.19499773    -0.19000
H217        H  0.38856655  0.47530492  0.19589454     0.16700
F218        F  0.42353839  0.57668893  0.23501060    -0.22700
H219        H  0.49257497  0.54049848  0.23356661     0.18500
C220        C  0.54075832  0.47066369  0.19817217     0.26500
C221        C  0.57891201  0.45356558  0.19773238    -0.11200
C222        C  0.59753919  0.44030406  0.21360864    -0.25300
C223        C  0.57734948  0.44544097  0.23008920     0.37400
C224        C  0.53913085  0.46274951  0.23051769    -0.26900
F225        F  0.52402601  0.48362391  0.18258456    -0.19000
H226        H  0.59394646  0.45078374  0.18489070     0.16700
F227        F  0.59476510  0.43458471  0.24581819    -0.22700
H228        H  0.52395333  0.46616453  0.24329627     0.18500
C229        C  0.27596159  0.74010773  0.10778418    -0.26800
C230        C  0.27002002  0.74980350  0.12594592     0.06800
C231        C  0.26316911  0.79082352  0.13079781     0.26500
C232        C  0.26249521  0.82144809  0.11764411    -0.11300
C233        C  0.26907540  0.81179847  0.09946662    -0.25200
C234        C  0.27560867  0.77063183  0.09466740     0.37300
C235        C  0.27242997  0.71718990  0.13975222     0.06900
F236        F  0.25668260  0.80119803  0.14822985    -0.19000
H237        H  0.25723342  0.85278422  0.12171461     0.16700
F238        F  0.28145951  0.75964702  0.07726678    -0.22700
H239        H  0.28161484  0.70880836  0.10376863     0.18500
C240        C  0.24978612  0.68107375  0.13827678     0.26500
C241        C  0.25263582  0.65058985  0.15143235    -0.11200
C242        C  0.27810664  0.65554500  0.16626076    -0.25300
C243        C  0.30147004  0.69131415  0.16742959     0.37400
C244        C  0.29847656  0.72172667  0.15433642    -0.26900
F245        F  0.22406783  0.67579272  0.12439933    -0.19000
H246        H  0.23427698  0.62347048  0.15020013     0.16700
F247        F  0.32746617  0.69696598  0.18117184    -0.22700
H248        H  0.31688393  0.74883341  0.15550274     0.18500
C249        C  0.70670407  0.22362099  0.11040765    -0.26800
C250        C  0.73214644  0.21838598  0.12518534     0.06800
C251        C  0.75473625  0.18219797  0.12629840     0.26500
C252        C  0.75133264  0.15179146  0.11302522    -0.11300
C253        C  0.72544335  0.15678929  0.09832733    -0.25200
C254        C  0.70327991  0.19334564  0.09714610     0.37300
C255        C  0.73314144  0.24976281  0.13977782     0.06900
F256        F  0.78053612  0.17650202  0.14009906    -0.19000
H257        H  0.76915937  0.12434584  0.11421744     0.16700
F258        F  0.67752205  0.19964098  0.08338141    -0.22700
H259        H  0.68862850  0.25093147  0.10934926     0.18500
C260        C  0.74022916  0.29134917  0.13601309     0.26500
C261        C  0.73867702  0.32073544  0.14979356    -0.11200
C262        C  0.72945402  0.30944281  0.16757185    -0.25300
C263        C  0.72282270  0.26769239  0.17131150     0.37400
C264        C  0.72486839  0.23836317  0.15758653    -0.26900
F265        F  0.74896064  0.30352689  0.11902163    -0.19000
H266        H  0.74413372  0.35249149  0.14648470     0.16700
F267        F  0.71438650  0.25499613  0.18825790    -0.22700
H268        H  0.71901521  0.20663239  0.16081891     0.18500
C269        C  0.52685465  0.01668135  0.03655873    -0.26800
C270        C  0.51053597  0.99671768  0.05158829     0.06800
C271        C  0.53416763  0.99203069  0.06702902     0.26500
C272        C  0.57294876  0.00757560  0.06752002    -0.11300
C273        C  0.58941781  0.02793788  0.05261031    -0.25200
C274        C  0.56588784  0.03230389  0.03702992     0.37300
C275        C  0.46889684  0.98105545  0.05137540     0.06900
F276        F  0.52005697  0.97145991  0.08155431    -0.19000
H277        H  0.59030951  0.00315346  0.07961286     0.16700
F278        F  0.58049627  0.05141887  0.02223571    -0.22700
H279        H  0.50916647  0.02056422  0.02452028     0.18500
C280        C  0.44223983  0.99190908  0.06516344     0.26500
C281        C  0.40416877  0.97475422  0.06586144    -0.11200
C282        C  0.39136350  0.94681678  0.05271134    -0.25300
C283        C  0.41743720  0.93706808  0.03846842     0.37400
C284        C  0.45591676  0.95405566  0.03786632    -0.26900
F285        F  0.45289638  0.01952612  0.07791680    -0.19000
H286        H  0.38449667  0.98370786  0.07673505     0.16700
F287        F  0.40614347  0.91065239  0.02535023    -0.22700
H288        H  0.47592730  0.94541340  0.02707140     0.18500
C289        C  0.46733893  0.44765851  0.79022297    -0.26800
C290        C  0.49019720  0.46243286  0.80469006     0.06800
C291        C  0.49594805  0.43688823  0.81967414     0.26500
C292        C  0.47893383  0.39793797  0.82023642    -0.11300
C293        C  0.45609373  0.38300215  0.80584055    -0.25200
C294        C  0.45056049  0.40829482  0.79071037     0.37300
C295        C  0.50731580  0.50456547  0.80449771     0.06900
F296        F  0.51896440  0.44913297  0.83367439    -0.19000
H297        H  0.48425941  0.37914168  0.83195587     0.16700
F298        F  0.42908571  0.39512872  0.77638112    -0.22700
H299        H  0.46206498  0.46678126  0.77860054     0.18500
C300        C  0.52847605  0.51989440  0.78956499     0.26500
C301        C  0.54560764  0.55907691  0.79013953    -0.11200
C302        C  0.54201476  0.58372573  0.80557007    -0.25300
C303        C  0.52055824  0.56836641  0.82040449     0.37400
C304        C  0.50327772  0.52953994  0.81975555    -0.26900
F305        F  0.53350629  0.49670851  0.77459665    -0.19000
H306        H  0.56168396  0.57013090  0.77848157     0.16700
F307        F  0.51610762  0.59075457  0.83564460    -0.22700
H308        H  0.48651096  0.51895889  0.83130059     0.18500
C309        C  0.82053827  0.16747749  0.99533702    -0.26800
C310        C  0.85839177  0.14921386  0.99407506     0.06800
C311        C  0.86553148  0.11282011  0.00357283     0.26500
C312        C  0.83572336  0.09575465  0.01437219    -0.11300
C313        C  0.79814402  0.11445238  0.01598591    -0.25200
C314        C  0.79055515  0.15022103  0.00609550     0.37300
C315        C  0.89139034  0.17030727  0.98442851     0.06900
F316        F  0.90205767  0.09498986  0.00329617    -0.19000
H317        H  0.84244440  0.06824038  0.02184819     0.16700
F318        F  0.75493786  0.16961053  0.00746762    -0.22700
H319        H  0.81449677  0.19568662  0.98826008     0.18500
C320        C  0.91587820  0.14962921  0.97199509     0.26500
C321        C  0.94975185  0.16885408  0.96480865    -0.11200
C322        C  0.95989806  0.20883636  0.96999055    -0.25300
C323        C  0.93399407  0.23023426  0.98160469     0.37400
C324        C  0.90017732  0.21111380  0.98867673    -0.26900
F325        F  0.90749751  0.11060133  0.96707681    -0.19000
H326        H  0.96904232  0.15177358  0.95585917     0.16700
F327        F  0.94197187  0.26929014  0.98665482    -0.22700
H328        H  0.88175984  0.22771474  0.99817001     0.18500
C329        C  0.17598209  0.16988322  0.02816973    -0.26800
C330        C  0.16308075  0.12899273  0.02889230     0.06800
C331        C  0.13273284  0.11607669  0.01718410     0.26500
C332        C  0.11651310  0.14313441  0.00472670    -0.11300
C333        C  0.13005531  0.18373769  0.00356419    -0.25200
C334        C  0.15953711  0.19717650  0.01567174     0.37300
C335        C  0.18381422  0.09843669  0.04025440     0.06900
F336        F  0.12030709  0.07655277  0.01703725    -0.19000
H337        H  0.09377556  0.13186001  0.99566363     0.16700
F338        F  0.17349628  0.23609463  0.01503665    -0.22700
H339        H  0.19941229  0.18041490  0.03704238     0.18500
C340        C  0.22505338  0.09234439  0.03827936     0.26500
C341        C  0.24285449  0.05720245  0.04520274    -0.11200
C342        C  0.22001211  0.02759792  0.05424313    -0.25300
C343        C  0.17967160  0.03575696  0.05790634     0.37400
C344        C  0.16175147  0.07093470  0.05088934    -0.26900
F345        F  0.24742742  0.11810937  0.02811912    -0.19000
H346        H  0.27412973  0.05181126  0.04241914     0.16700
F347        F  0.15669690  0.00804259  0.06670733    -0.22700
H348        H  0.13001864  0.07537724  0.05276599     0.18500
C349        C  0.19290558  0.22730038  0.88786764    -0.26800
C350        C  0.23071427  0.24441621  0.89114718     0.06800
C351        C  0.23764695  0.26335745  0.90782250     0.26500
C352        C  0.20748555  0.26512955  0.92085538    -0.11300
C353        C  0.16960854  0.24797414  0.91768601    -0.25200
C354        C  0.16272572  0.22869870  0.90100729     0.37300
C355        C  0.26231831  0.24398341  0.87697960     0.06900
F356        F  0.27327194  0.28139467  0.91131541    -0.19000
H357        H  0.21383477  0.28029657  0.93347561     0.16700
F358        F  0.12685738  0.21143173  0.89730020    -0.22700
H359        H  0.18682238  0.21262338  0.87510693     0.18500
C360        C  0.30051256  0.22794600  0.88039790     0.26500
C361        C  0.33060350  0.22992507  0.86725610    -0.11200
C362        C  0.32334438  0.24786425  0.85039447    -0.25300
C363        C  0.28476722  0.26324148  0.84691822     0.37400
C364        C  0.25474543  0.26110867  0.86004217    -0.26900
F365        F  0.30857604  0.20986079  0.89638886    -0.19000
H366        H  0.35967591  0.21738184  0.87030410     0.16700
F367        F  0.27598887  0.28095471  0.83092305    -0.22700
H368        H  0.22564404  0.27376367  0.85710550     0.18500
C369        C  0.80837609  0.79677035  0.02501181    -0.26800
C370        C  0.82564530  0.83486020  0.02913474     0.06800
C371        C  0.86434208  0.84333971  0.02280279     0.26500
C372        C  0.88378706  0.81573823  0.01141585    -0.11300
C373        C  0.86542072  0.77888342  0.00631394    -0.25200
C374        C  0.82810602  0.76887658  0.01377613     0.37300
C375        C  0.80157632  0.86774949  0.03774135     0.06900
F376        F  0.88211894  0.87972908  0.02641425    -0.19000
H377        H  0.91264178  0.82403051  0.00594504     0.16700
F378        F  0.80927566  0.73371966  0.00908185    -0.22700
H379        H  0.77874264  0.78942173  0.02983886     0.18500
C380        C  0.76484850  0.87926656  0.03019931     0.26500
C381        C  0.74554671  0.91473437  0.03601303    -0.11200
C382        C  0.76217989  0.93952232  0.04951656    -0.25300
C383        C  0.79748682  0.92652655  0.05796369     0.37400
C384        C  0.81703023  0.89103442  0.05204138    -0.26900
F385        F  0.74907820  0.85805469  0.01621546    -0.19000
H386        H  0.71830921  0.92379698  0.02932090     0.16700
F387        F  0.81456127  0.94943165  0.07107976    -0.22700
H388        H  0.84510677  0.88258144  0.05815586     0.18500
C389        C  0.09899383  0.75616466  0.97890891    -0.26800
C390        C  0.10019516  0.79848029  0.98191750     0.06800
C391        C  0.06928283  0.82303831  0.97516377     0.26500
C392        C  0.03609286  0.80513919  0.96694813    -0.11300
C393        C  0.03294801  0.76247034  0.96559920    -0.25200
C394        C  0.06554944  0.73816752  0.97087704     0.37300
C395        C  0.13057641  0.81617161  0.99410051     0.06900
F396        F  0.07012446  0.86418190  0.97751903    -0.19000
H397        H  0.01149622  0.82448746  0.96295766     0.16700
F398        F  0.06417683  0.69686695  0.96916165    -0.22700
H399        H  0.12269381  0.73680069  0.98387498     0.18500
C400        C  0.11836174  0.83535604  0.01007243     0.26500
C401        C  0.14643779  0.85209837  0.02176309    -0.11200
C402        C  0.18744941  0.84994900  0.01791945    -0.25300
C403        C  0.19981557  0.83003904  0.00204196     0.37400
C404        C  0.17149258  0.81311004  0.99029116    -0.26900
F405        F  0.07914891  0.83705046  0.01459089    -0.19000
H406        H  0.13589009  0.86665318  0.03395329     0.16700
F407        F  0.23907539  0.82700510  0.99782563    -0.22700
H408        H  0.18142435  0.79797012  0.97813361     0.18500
C409        C  0.75576593  0.70359479  0.90789229    -0.26800
C410        C  0.76134055  0.72729217  0.89238675     0.06800
C411        C  0.79671453  0.75022561  0.89063103     0.26500
C412        C  0.82642105  0.74810909  0.90384573    -0.11300
C413        C  0.82127043  0.72351086  0.91915999    -0.25200
C414        C  0.78522531  0.70165586  0.92114223     0.37300
C415        C  0.73073684  0.72648570  0.87792074     0.06900
F416        F  0.80235892  0.77504042  0.87623887    -0.19000
H417        H  0.85348244  0.76575923  0.90208668     0.16700
F418        F  0.77865045  0.67748765  0.93566947    -0.22700
H419        H  0.72885308  0.68562959  0.90954221     0.18500
C420        C  0.74141423  0.71702829  0.86011689     0.26500
C421        C  0.71225272  0.71417831  0.84676048    -0.11200
C422        C  0.67173257  0.72059120  0.85078140    -0.25300
C423        C  0.66100177  0.73015679  0.86861277     0.37400
C424        C  0.69026097  0.73286649  0.88201585    -0.26900
F425        F  0.77991238  0.70895749  0.85573028    -0.19000
H426        H  0.72149373  0.70660432  0.83321385     0.16700
F427        F  0.62228461  0.73626990  0.87320388    -0.22700
H428        H  0.68129849  0.73991447  0.89565821     0.18500
C429        C  0.00083106  0.53371510  0.94890369    -0.26800
C430        C  0.98034742  0.50229947  0.95780778     0.06800
C431        C  0.94421008  0.51131373  0.96658638     0.26500
C432        C  0.92945904  0.55143007  0.96674568    -0.11300
C433        C  0.95028612  0.58298637  0.95798806    -0.25200
C434        C  0.98608685  0.57362809  0.94896278     0.37300
C435        C  0.99796999  0.46076848  0.95836069     0.06900
F436        F  0.92301670  0.48126579  0.97479589    -0.19000
H437        H  0.90169675  0.55781441  0.97364631     0.16700
F438        F  0.00786594  0.60337600  0.94084861    -0.22700
H439        H  0.02893519  0.52747065  0.94226091     0.18500
C440        C  0.00747288  0.43996220  0.94239391     0.26500
C441        C  0.02606111  0.40174281  0.94302298    -0.11200
C442        C  0.03607988  0.38370210  0.95955669    -0.25300
C443        C  0.02664936  0.40468236  0.97556061     0.37400
C444        C  0.00755597  0.44273631  0.97490993    -0.26900
F445        F  0.99823086  0.45637475  0.92618040    -0.19000
H446        H  0.03261250  0.38620053  0.93050729     0.16700
F447        F  0.03508192  0.38817708  0.99184076    -0.22700
H448        H  0.00077036  0.45849907  0.98734972     0.18500
C449        C  0.03995571  0.48746340  0.57178324    -0.26800
C450        C  0.01786627  0.48658221  0.55579244     0.06800
C451        C  0.03552236  0.50117674  0.53989386     0.26500
C452        C  0.07449795  0.51667778  0.54007958    -0.11300
C453        C  0.09681934  0.51741804  0.55605588    -0.25200
C454        C  0.07914716  0.50226333  0.57194127     0.37300
C455        C  0.97605432  0.47165358  0.55596279     0.06900
F456        F  0.01470839  0.50134121  0.52427017    -0.19000
H457        H  0.08734420  0.52782119  0.52765568     0.16700
F458        F  0.09946733  0.50204236  0.58770342    -0.22700
H459        H  0.02684465  0.47635548  0.58417013     0.18500
C460        C  0.96396244  0.43871103  0.54509130     0.26500
C461        C  0.92424990  0.42527847  0.54536203    -0.11200
C462        C  0.89596264  0.44427858  0.55654171    -0.25300
C463        C  0.90821650  0.47737575  0.56738624     0.37400
C464        C  0.94787911  0.49064857  0.56712793    -0.26900
F465        F  0.99077394  0.41892960  0.53454129    -0.19000
H466        H  0.91572138  0.39967929  0.53696136     0.16700
F467        F  0.88177783  0.49759335  0.57798194    -0.22700
H468        H  0.95655628  0.51628189  0.57549426     0.18500
C469        C  0.57228874  0.13944584  0.79294513    -0.26800
C470        C  0.60280157  0.16381906  0.78559661     0.06800
C471        C  0.59996938  0.20651409  0.78713627     0.26500
C472        C  0.56616218  0.22443019  0.79487741    -0.11300
C473        C  0.53466556  0.20022774  0.80145311    -0.25200
C474        C  0.53869001  0.15739291  0.80100895     0.37300
C475        C  0.63468577  0.14520977  0.77434158     0.06900
F476        F  0.62844188  0.23099486  0.77987362    -0.19000
H477        H  0.56378369  0.25744229  0.79496964     0.16700
F478        F  0.50884377  0.13287871  0.80702191    -0.22700
H479        H  0.57381674  0.10647263  0.79180604     0.18500
C480        C  0.67537195  0.15081458  0.77823587     0.26500
C481        C  0.70479570  0.13597195  0.76644056    -0.11200
C482        C  0.69417926  0.11565985  0.75045995    -0.25300
C483        C  0.65325629  0.10967589  0.74679262     0.37400
C484        C  0.62408176  0.12408725  0.75866282    -0.26900
F485        F  0.68659056  0.17057613  0.79345528    -0.19000
H486        H  0.73588877  0.14077443  0.76972208     0.16700
F487        F  0.64112005  0.09026857  0.73161865    -0.22700
H488        H  0.59292153  0.11978188  0.75532277     0.18500
C489        C  0.68010727  0.89669767  0.71877859    -0.26800
C490        C  0.69988572  0.87165255  0.73123970     0.06800
C491        C  0.73915732  0.88128518  0.73619591     0.26500
C492        C  0.75698309  0.91716374  0.72994035    -0.11300
C493        C  0.73618571  0.94381359  0.71849933    -0.25200
C494        C  0.69815007  0.93243665  0.71233689     0.37300
C495        C  0.67753524  0.84006763  0.74133403     0.06900
F496        F  0.75896696  0.85797005  0.74832841    -0.19000
H497        H  0.78643134  0.92514063  0.73477552     0.16700
F498        F  0.67707924  0.95743222  0.70134715    -0.22700
H499        H  0.64978340  0.88971021  0.71483017     0.18500
C500        C  0.64428244  0.85174422  0.75158578     0.26500
C501        C  0.62601048  0.82389677  0.76310586    -0.11200
C502        C  0.64035149  0.78372158  0.76472728    -0.25300
C503        C  0.67274011  0.77140056  0.75393936     0.37400
C504        C  0.69134416  0.79958409  0.74241959    -0.26900
F505        F  0.63094295  0.89091129  0.75132280    -0.19000
H506        H  0.60110022  0.83429052  0.77118008     0.16700
F507        F  0.68749093  0.73288758  0.75506961    -0.22700
H508        H  0.71710310  0.79015393  0.73466484     0.18500
C509        C  0.78946602  0.22650273  0.65750215    -0.26800
C510        C  0.77724434  0.21573235  0.64007071     0.06800
C511        C  0.76722498  0.17457611  0.63662596     0.26500
C512        C  0.76855614  0.14541683  0.65045002    -0.11300
C513        C  0.78006073  0.15648645  0.66796950    -0.28400
C514        C  0.79068794  0.19750312  0.67129783     0.37300
C515        C  0.77466801  0.24774747  0.62578525     0.06900
F516        F  0.75499987  0.16266630  0.62004690    -0.19000
H517        H  0.76030896  0.11412589  0.64744232     0.16700
F518        F  0.80178271  0.20996672  0.68796004    -0.22700
H519        H  0.79820694  0.25764873  0.66049488     0.18500
C520        C  0.75681219  0.28592394  0.62933326     0.26500
C521        C  0.75552022  0.31629180  0.61607834    -0.11200
C522        C  0.77166463  0.30940234  0.59890759    -0.25300
C523        C  0.78902507  0.27097565  0.59525003     0.37400
C524        C  0.79062708  0.24073129  0.60857410    -0.26900
F525        F  0.73985736  0.29372246  0.64555135    -0.19000
H526        H  0.74172266  0.34531212  0.61928630     0.16700
F527        F  0.80491328  0.26257396  0.57886680    -0.22700
H528        H  0.80502569  0.21194734  0.60548702     0.18500
C529        C  0.32152048  0.16660919  0.74080281    -0.26800
C530        C  0.33606353  0.12639572  0.73942074     0.06800
C531        C  0.36880647  0.11485229  0.75003666     0.26500
C532        C  0.38519896  0.14225962  0.76236397    -0.11300
C533        C  0.36956243  0.18182937  0.76437864    -0.25200
C534        C  0.33815198  0.19422158  0.75313467     0.37300
C535        C  0.31448280  0.09504439  0.72870962     0.06900
F536        F  0.38334109  0.07616490  0.74939435    -0.19000
H537        H  0.40957956  0.13199689  0.77075067     0.16700
F538        F  0.32211512  0.23212118  0.75470781    -0.22700
H539        H  0.29641749  0.17621176  0.73271333     0.18500
C540        C  0.27366524  0.08808269  0.73177042     0.26500
C541        C  0.25508509  0.05344177  0.72465234    -0.11200
C542        C  0.27664026  0.02505772  0.71429736    -0.25300
C543        C  0.31672292  0.03358200  0.71009014     0.37400
C544        C  0.33539388  0.06831761  0.71726332    -0.26900
F545        F  0.25250512  0.11277933  0.74292384    -0.19000
H546        H  0.22418720  0.04767196  0.72808552     0.16700
F547        F  0.33877935  0.00677331  0.70033474    -0.22700
H548        H  0.36680470  0.07326315  0.71462189     0.18500
C549        C  0.38394006  0.85220082  0.75737726    -0.26800
C550        C  0.37270587  0.82843669  0.77221858     0.06800
C551        C  0.33196348  0.82106841  0.77535529     0.26500
C552        C  0.30312372  0.83620805  0.76347625    -0.11300
C553        C  0.31441778  0.85862410  0.74817504    -0.25200
C554        C  0.35529773  0.86703742  0.74542130     0.37300
C555        C  0.40400534  0.80840275  0.78317352     0.06900
F556        F  0.32015863  0.79884772  0.78981014    -0.19000
H557        H  0.27199234  0.82960901  0.76604789     0.16700
F558        F  0.36789744  0.88901328  0.73101454    -0.22700
H559        H  0.41520067  0.85800084  0.75465559     0.18500
C560        C  0.40605742  0.76554567  0.78389385     0.26500
C561        C  0.43918430  0.74637870  0.79146143    -0.11200
C562        C  0.47065455  0.76943850  0.79868108    -0.25300
C563        C  0.46746386  0.81230741  0.79909159     0.37400
C564        C  0.43455748  0.83159723  0.79116639    -0.26900
F565        F  0.37753113  0.74217986  0.77601845    -0.19000
H566        H  0.44107519  0.71334705  0.79096157     0.16700
F567        F  0.49748920  0.83558205  0.80581086    -0.22700
H568        H  0.43357505  0.86466647  0.79067569     0.18500
C569        C  0.22363550  0.73536613  0.65762563    -0.26800
C570        C  0.22875209  0.74536863  0.63942139     0.06800
C571        C  0.23484011  0.78663256  0.63477375     0.26500
C572        C  0.23574734  0.81706566  0.64810301    -0.11300
C573        C  0.23019095  0.80715315  0.66634038    -0.25200
C574        C  0.22416590  0.76572848  0.67093611     0.37300
C575        C  0.22705244  0.71271812  0.62541097     0.06900
F576        F  0.24057310  0.79744793  0.61735351    -0.19000
H577        H  0.24054226  0.84851908  0.64410925     0.16700
F578        F  0.21864889  0.75433962  0.68829962    -0.22700
H579        H  0.21855866  0.70389139  0.66153499     0.18500
C580        C  0.25148400  0.67784290  0.62649303     0.26500
C581        C  0.24926705  0.64711076  0.61334600    -0.11200
C582        C  0.22266261  0.65037559  0.59881984    -0.25300
C583        C  0.19797249  0.68522385  0.59785563     0.37400
C584        C  0.20030575  0.71594163  0.61098146    -0.26900
F585        F  0.27829636  0.67399857  0.64002280    -0.19000
H586        H  0.26884179  0.62092888  0.61442461     0.16700
F587        F  0.17129422  0.68966109  0.58430540    -0.22700
H588        H  0.18078125  0.74219530  0.60998436     0.18500
C589        C  0.95478043  0.97631677  0.70127275    -0.26800
C590        C  0.98328983  0.98913930  0.71385998     0.06800
C591        C  0.97282784  0.02027080  0.72611357     0.26500
C592        C  0.93447364  0.03765212  0.72579269    -0.11300
C593        C  0.90599239  0.02472013  0.71313101    -0.25200
C594        C  0.91677955  0.99374096  0.70083744     0.37300
C595        C  0.02407704  0.97085792  0.71336695     0.06900
F596        F  0.00001151  0.03483713  0.73800034    -0.19000
H597        H  0.92718986  0.06149166  0.73534912     0.16700
F598        F  0.89046376  0.97959991  0.68845531    -0.22700
H599        H  0.96192047  0.95239256  0.69172792     0.18500
C600        C  0.04264648  0.95530097  0.72889638     0.26500
C601        C  0.08108993  0.93831168  0.72790584    -0.11200
C602        C  0.10175487  0.93643983  0.71144019    -0.25300
C603        C  0.08251517  0.95088310  0.69585925     0.37400
C604        C  0.04432437  0.96783909  0.69687742    -0.26900
F605        F  0.02340199  0.95581756  0.74495419    -0.19000
H606        H  0.09494928  0.92722782  0.74009695     0.16700
F607        F  0.10059457  0.94888160  0.67954523    -0.22700
H608        H  0.03066337  0.97921516  0.68468706     0.18500
C609        C  0.66164047  0.56814522  0.54726946    -0.26800
C610        C  0.68331933  0.59599623  0.53664961     0.06800
C611        C  0.72473502  0.59067116  0.53482370     0.26500
C612        C  0.74328530  0.55643439  0.54222731    -0.11300
C613        C  0.72110021  0.52694208  0.55164589    -0.25200
C614        C  0.68027540  0.53379141  0.55468945     0.37300
C615        C  0.66226159  0.62681827  0.52550358     0.06900
F616        F  0.74677226  0.61651678  0.52455231    -0.19000
H617        H  0.77478064  0.55178927  0.53971369     0.16700
F618        F  0.65767527  0.50553772  0.56335529    -0.22700
H619        H  0.62977618  0.57183028  0.54899279     0.18500
C620        C  0.63067431  0.61457598  0.51430168     0.26500
C621        C  0.61456622  0.64176471  0.50187034    -0.11200
C622        C  0.62943296  0.68174744  0.50025474    -0.25300
C623        C  0.65982376  0.69473026  0.51196460     0.37400
C624        C  0.67606533  0.66739136  0.52446591    -0.26900
F625        F  0.61696359  0.57551455  0.51452120    -0.19000
H626        H  0.59097907  0.63103826  0.49311678     0.16700
F627        F  0.67518811  0.73302844  0.51075968    -0.22700
H628        H  0.70023461  0.67756933  0.53300929     0.18500
C629        C  0.40522063  0.71545045  0.48938839    -0.26800
C630        C  0.39233307  0.67621398  0.48444499     0.06800
C631        C  0.41252532  0.65584559  0.47043968     0.26500
C632        C  0.44687044  0.67328399  0.46264432    -0.11300
C633        C  0.46151076  0.71125485  0.46867401    -0.25200
C634        C  0.43929361  0.73277441  0.48171721     0.37300
C635        C  0.36109027  0.65564015  0.49552828     0.06900
F636        F  0.40074420  0.61800498  0.46515797    -0.19000
H637        H  0.46315348  0.65611331  0.45259067     0.16700
F638        F  0.45130546  0.77001710  0.48770233    -0.22700
H639        H  0.38972799  0.73209743  0.49987095     0.18500
C640        C  0.36590761  0.65358990  0.51428016     0.26500
C641        C  0.33691301  0.63530613  0.52506804    -0.11200
C642        C  0.30207990  0.61862148  0.51759561    -0.25300
C643        C  0.29702810  0.62039670  0.49879461     0.37400
C644        C  0.32649510  0.63858281  0.48785947    -0.26900
F645        F  0.39925916  0.66864232  0.52222442    -0.19000
H646        H  0.34183846  0.63427870  0.53944415     0.16700
F647        F  0.26427193  0.60379480  0.49096609    -0.22700
H648        H  0.32213919  0.63972063  0.47345044     0.18500
C649        C  0.32174695  0.38408731  0.55171512    -0.26800
C650        C  0.30746503  0.36270424  0.53663526     0.06800
C651        C  0.27309837  0.37689804  0.52790529     0.26500
C652        C  0.25476710  0.41295648  0.53354171    -0.11300
C653        C  0.27017149  0.43573091  0.54800208    -0.25200
C654        C  0.30314999  0.42021512  0.55746846     0.37300
C655        C  0.33109854  0.32934530  0.52836593     0.06900
F656        F  0.25899400  0.35763502  0.51303881    -0.19000
H657        H  0.22929223  0.42393326  0.52604643     0.16700
F658        F  0.31877867  0.44097162  0.57159975    -0.22700
H659        H  0.34823141  0.37358319  0.55860407     0.18500
C660        C  0.37005510  0.33732393  0.52236456     0.26500
C661        C  0.38937647  0.30964112  0.51106256    -0.11200
C662        C  0.37043189  0.27338460  0.50557866    -0.25300
C663        C  0.33276322  0.26372604  0.51276118     0.37400
C664        C  0.31316469  0.29174838  0.52397798    -0.26900
F665        F  0.38809642  0.37352005  0.52609254    -0.19000
H666        H  0.41853332  0.31762990  0.50583481     0.16700
F667        F  0.31359916  0.22891353  0.50785051    -0.22700
H668        H  0.28316118  0.28504896  0.52851842     0.18500
C669        C  0.67157147  0.32926042  0.48838193    -0.26800
C670        C  0.63080046  0.33549049  0.49172485     0.06800
C671        C  0.61919167  0.35699459  0.50721367     0.26500
C672        C  0.64785696  0.37090550  0.51935560    -0.11300
C673        C  0.68870346  0.36366936  0.51636869    -0.25200
C674        C  0.70038914  0.34345922  0.50049826     0.37300
C675        C  0.60038634  0.31482372  0.48053873     0.06900
F676        F  0.58001039  0.36229738  0.51120510    -0.19000
H677        H  0.63785814  0.38652552  0.53138870     0.16700
F678        F  0.73943478  0.33627851  0.49692377    -0.22700
H679        H  0.68099314  0.31246150  0.47656445     0.18500
C680        C  0.56815157  0.33636110  0.47305578     0.26500
C681        C  0.53613753  0.31506855  0.46538765    -0.11200
C682        C  0.53560393  0.27212468  0.46538639    -0.25300
C683        C  0.56910335  0.25084065  0.47181164     0.37400
C684        C  0.60124620  0.27210437  0.47917457    -0.26900
F685        F  0.56685286  0.37779202  0.47387059    -0.19000
H686        H  0.51062142  0.33208679  0.46058525     0.16700
F687        F  0.56995216  0.20935185  0.47184052    -0.22700
H688        H  0.62576376  0.25499610  0.48488375     0.18500
C689        C  0.49772052  0.02908491  0.43976184    -0.26800
C690        C  0.50500177  0.00714323  0.45563003     0.06800
C691        C  0.49450912  0.02482162  0.47222121     0.26500
C692        C  0.47658966  0.06340212  0.47282508    -0.11300
C693        C  0.46910282  0.08528294  0.45694716    -0.25200
C694        C  0.48001888  0.06773126  0.44035251     0.37300
C695        C  0.52216494  0.96535671  0.45473216     0.06900
F696        F  0.50061480  0.00436594  0.48783431    -0.19000
H697        H  0.46880516  0.07628842  0.48577367     0.16700
F698        F  0.47328976  0.08761540  0.42464563    -0.22700
H699        H  0.50586571  0.01625815  0.42684250     0.18500
C700        C  0.50539825  0.93569717  0.44332779     0.26500
C701        C  0.52047508  0.89593511  0.44306723    -0.11200
C702        C  0.55231803  0.88465317  0.45426652    -0.25300
C703        C  0.56971259  0.91453733  0.46541293     0.37400
C704        C  0.55476826  0.95451773  0.46556891    -0.26900
F705        F  0.47324733  0.94462559  0.43299823    -0.19000
H706        H  0.50626256  0.87355908  0.43445869     0.16700
F707        F  0.60100762  0.90521646  0.47618656    -0.22700
H708        H  0.56857342  0.97704750  0.47423283     0.18500
C709        C  0.13826318  0.35979310  0.25555835    -0.26800
C710        C  0.17151085  0.34753659  0.24542331     0.06800
C711        C  0.18595960  0.30739178  0.24738909     0.26500
C712        C  0.16752089  0.28033317  0.25940494    -0.11300
C713        C  0.13493804  0.29310232  0.26986556    -0.25200
C714        C  0.12016620  0.33302598  0.26766747     0.37300
C715        C  0.19269813  0.37822855  0.23424752     0.06900
F716        F  0.21805107  0.29446362  0.23782133    -0.19000
H717        H  0.17946115  0.24979189  0.26092651     0.16700
F718        F  0.08825831  0.34636453  0.27726883    -0.22700
H719        H  0.12702963  0.39073403  0.25455596     0.18500
C720        C  0.17159971  0.40467876  0.22276048     0.26500
C721        C  0.19062783  0.43861571  0.21513118    -0.11200
C722        C  0.23080620  0.44676103  0.21895193    -0.25300
C723        C  0.25266119  0.41840975  0.22916739     0.37400
C724        C  0.23369565  0.38455818  0.23675858    -0.26900
F725        F  0.13218068  0.39871232  0.21957406    -0.19000
H726        H  0.17328239  0.45992762  0.20723863     0.16700
F727        F  0.29200240  0.42446036  0.23254418    -0.22700
H728        H  0.25060363  0.36474674  0.24554250     0.18500
C729        C  0.82381166  0.31050490  0.27750786    -0.26800
C730        C  0.86422940  0.32073641  0.27494837     0.06800
C731        C  0.87459759  0.34538323  0.26018661     0.26500
C732        C  0.84532706  0.35989526  0.24851215    -0.11300
C733        C  0.80486515  0.35004531  0.25101875    -0.25200
C734        C  0.79430292  0.32508668  0.26572250     0.37300
C735        C  0.89600787  0.30352294  0.28672622     0.06900
F736        F  0.91335467  0.35409689  0.25653434    -0.19000
H737        H  0.85463142  0.37865009  0.23727376     0.16700
F738        F  0.75573398  0.31432519  0.26861280    -0.22700
H739        H  0.81512159  0.29111066  0.28863933     0.18500
C740        C  0.92650499  0.32851742  0.29380069     0.26500
C741        C  0.95991398  0.31104783  0.30209946    -0.11200
C742        C  0.96364411  0.26843184  0.30336633    -0.25300
C743        C  0.93173034  0.24367573  0.29761964     0.37400
C744        C  0.89820464  0.26112546  0.28947523    -0.26900
F745        F  0.92477105  0.36977092  0.29204081    -0.19000
H746        H  0.98406701  0.33071861  0.30641114     0.16700
F747        F  0.93373405  0.20238672  0.29918848    -0.22700
H748        H  0.87504042  0.24123462  0.28434023     0.18500
C749        C  0.24424038  0.20904784  0.36109449    -0.26800
C750        C  0.23568653  0.21948764  0.37897270     0.06800
C751        C  0.19604924  0.22879601  0.38371664     0.26500
C752        C  0.16566591  0.22731858  0.37080323    -0.11300
C753        C  0.17408858  0.21641476  0.35291514    -0.25200
C754        C  0.21391678  0.20723543  0.34821087     0.37300
C755        C  0.26806129  0.21946186  0.39262387     0.06900
F756        F  0.18681554  0.24006010  0.40078406    -0.19000
H757        H  0.13548645  0.23473839  0.37482540     0.16700
F758        F  0.22382867  0.19662188  0.33113836    -0.22700
H759        H  0.27448824  0.20159383  0.35715293     0.18500
C760        C  0.26422975  0.19632440  0.40842672     0.26500
C761        C  0.29490611  0.19575476  0.42109805    -0.11200
C762        C  0.33035173  0.21790019  0.41830795    -0.25300
C763        C  0.33441259  0.24089906  0.40240510     0.37400
C764        C  0.30353523  0.24150636  0.38969123    -0.26900
F765        F  0.23130159  0.17309587  0.41136484    -0.19000
H766        H  0.29099187  0.17741325  0.43307549     0.16700
F767        F  0.36800995  0.26285691  0.39912633    -0.22700
H768        H  0.30720390  0.25942203  0.37756875     0.18500
C769        C  0.09589306  0.71885686  0.27830880    -0.26800
C770        C  0.10299693  0.67705828  0.28099015     0.06800
C771        C  0.07648034  0.65462637  0.29191385     0.26500
C772        C  0.04212544  0.67316381  0.29891372    -0.11300
C773        C  0.03357705  0.71423139  0.29506066    -0.25200
C774        C  0.06156054  0.73730729  0.28520881     0.37300
C775        C  0.13585834  0.65670826  0.27097202     0.06900
F776        F  0.08319346  0.61449522  0.29537983    -0.19000
H777        H  0.02118632  0.65481581  0.30652749     0.16700
F778        F  0.05510532  0.77747438  0.28170493    -0.22700
H779        H  0.11592620  0.73683359  0.27005334     0.18500
C780        C  0.12784978  0.62235033  0.26019445     0.26500
C781        C  0.15772025  0.60544787  0.24945849    -0.11200
C782        C  0.19623099  0.62240489  0.24904216    -0.25300
C783        C  0.20456198  0.65652499  0.25994116     0.37400
C784        C  0.17450748  0.67355617  0.27075389    -0.26900
F785        F  0.09053128  0.60639096  0.25922774    -0.19000
H786        H  0.15037103  0.57931781  0.24113587     0.16700
F787        F  0.24105609  0.67446979  0.25957256    -0.22700
H788        H  0.18120491  0.70037748  0.27875109     0.18500
C789        C  0.79942952  0.67265519  0.24261101    -0.26800
C790        C  0.81629377  0.63393960  0.23939778     0.06800
C791        C  0.85333718  0.62458160  0.24714979     0.26500
C792        C  0.87239471  0.65264735  0.25828969    -0.11300
C793        C  0.85515186  0.69077973  0.26208894    -0.25200
C794        C  0.81879211  0.70107073  0.25379315     0.37300
C795        C  0.79423582  0.60141940  0.22961628     0.06900
F796        F  0.87005088  0.58714602  0.24490115    -0.19000
H797        H  0.90037322  0.64386716  0.26441170     0.16700
F798        F  0.80113121  0.73763063  0.25708192    -0.22700
H799        H  0.77087703  0.68049160  0.23678222     0.18500
C800        C  0.75643496  0.58877705  0.23561888     0.26500
C801        C  0.74044226  0.55162980  0.22970986    -0.11200
C802        C  0.76158500  0.52659215  0.21761113    -0.25300
C803        C  0.79761939  0.54110453  0.21033602     0.37400
C804        C  0.81369419  0.57822545  0.21630911    -0.26900
F805        F  0.73654547  0.61039422  0.24837386    -0.19000
H806        H  0.71230915  0.54146287  0.23532903     0.16700
F807        F  0.81894158  0.51801153  0.19861096    -0.22700
H808        H  0.84266731  0.58766894  0.21136392     0.18500
C809        C  0.76576193  0.77101534  0.36185307    -0.26800
C810        C  0.77031341  0.74227358  0.37567648     0.06800
C811        C  0.80520163  0.71825863  0.37598076     0.26500
C812        C  0.83453086  0.72295096  0.36258272    -0.11300
C813        C  0.82959869  0.75151492  0.34861851    -0.25200
C814        C  0.79485467  0.77573406  0.34854126     0.37300
C815        C  0.73825249  0.73825951  0.38952612     0.06900
F816        F  0.81038444  0.68939705  0.38885454    -0.19000
H817        H  0.86076432  0.70370985  0.36295913     0.16700
F818        F  0.78884473  0.80431865  0.33562437    -0.22700
H819        H  0.73952622  0.79025347  0.36142980     0.18500
C820        C  0.74671010  0.74150521  0.40798033     0.26500
C821        C  0.71565295  0.74226130  0.42063193    -0.11200
C822        C  0.67545227  0.73961740  0.41524867    -0.25300
C823        C  0.66710834  0.73507813  0.39682115     0.37400
C824        C  0.69817604  0.73458931  0.38416549    -0.26900
F825        F  0.78481668  0.74614160  0.41375665    -0.19000
H826        H  0.72313409  0.74576886  0.43469773     0.16700
F827        F  0.62893125  0.73263534  0.39091189    -0.22700
H828        H  0.69086938  0.73204562  0.37004063     0.18500
C829        C  0.97669124  0.95127636  0.28590717    -0.26800
C830        C  0.98798399  0.96979486  0.30217794     0.06800
C831        C  0.98182089  0.94844478  0.31834112     0.26500
C832        C  0.96478614  0.90952558  0.31822184    -0.11300
C833        C  0.95335618  0.89083261  0.30202929    -0.25200
C834        C  0.95941173  0.91216383  0.28578539     0.37300
C835        C  0.00505227  0.01172009  0.30257011     0.06900
F836        F  0.99312442  0.96489531  0.33430090    -0.19000
H837        H  0.96080716  0.89383826  0.33090834     0.16700
F838        F  0.94944778  0.89504292  0.26978582    -0.22700
H839        H  0.98089733  0.96728140  0.27330944     0.18500
C840        C  0.03831512  0.02271361  0.29203910     0.26500
C841        C  0.05517538  0.06185902  0.29364808    -0.11200
C842        C  0.03933874  0.09040777  0.30586498    -0.25300
C843        C  0.00549811  0.07952599  0.31602066     0.37400
C844        C  0.98858917  0.04078356  0.31428525    -0.26900
F845        F  0.05531459  0.99526409  0.28069158    -0.19000
H846        H  0.08100807  0.06959530  0.28558137     0.16700
F847        F  0.98813762  0.10654720  0.32745982    -0.22700
H848        H  0.96246660  0.03335227  0.32221647     0.18500
loop_ 
_geom_bond_atom_site_label_1 
_geom_bond_atom_site_label_2 
_geom_bond_distance 
_geom_bond_site_symmetry_2 
_ccdc_geom_bond_type 
O1            C4   1.269       .  A
O1           Cd6   2.489       .  S
C2           O11   1.263       .  A
C2            O7   1.268       .  A
C2          C793   1.482       .  S
O3            C9   1.271       .  A
O3           Cd6   2.509       .  S
C4           O12   1.267       .  A
C4          C833   1.484       .  S
C5           O10   1.270       .  A
C5            O8   1.265       .  A
C5          C813   1.492       .  S
Cd6          O13   2.423       .  S
Cd6          O12   2.442       .  S
Cd6          O11   2.419       .  S
Cd6           O7   2.519       .  S
Cd6          O10   2.526       .  S
Cd6           O8   2.446       .  S
C9           O13   1.264       .  A
C9          C773   1.481   1_655  S
O14          C17   1.271       .  A
O14         Cd19   2.487       .  S
C15          O24   1.264       .  A
C15          O20   1.269       .  A
C15         C713   1.477       .  S
O16          C22   1.272       .  A
O16         Cd19   2.521       .  S
C17          O25   1.267       .  A
C17         C842   1.482       .  S
C18          O23   1.271       .  A
C18          O21   1.264       .  A
C18         C753   1.490       .  S
Cd19         O26   2.432       .  S
Cd19         O25   2.423       .  S
Cd19         O24   2.425       .  S
Cd19         O20   2.488       .  S
Cd19         O23   2.516       .  S
Cd19         O21   2.451       .  S
C22          O26   1.263       .  A
C22         C742   1.482   1_455  S
O27          C30   1.269       .  A
O27         Cd32   2.473       .  S
C28          O37   1.269       .  A
C28          O33   1.262       .  A
C28         C662   1.479       .  S
O29          C35   1.270       .  A
O29         Cd32   2.487       .  S
C30          O38   1.266       .  A
C30         C693   1.482       .  S
C31          O36   1.269       .  A
C31          O34   1.265       .  A
C31         C762   1.487       .  S
Cd32         O39   2.413       .  S
Cd32         O38   2.445       .  S
Cd32         O37   2.514       .  S
Cd32         O33   2.417       .  S
Cd32         O36   2.503       .  S
Cd32         O34   2.441       .  S
C35          O39   1.264       .  A
C35         C682   1.476       .  S
O40          C43   1.270       .  A
O40         Cd45   2.482       .  S
C41          O50   1.266       .  A
C41          O46   1.271       .  A
C41         C622   1.480       .  S
O42          C48   1.274       .  A
O42         Cd45   2.533       .  S
C43          O51   1.267       .  A
C43         C702   1.483       .  S
C44          O49   1.272       .  A
C44          O47   1.264       .  A
C44         C822   1.493       .  S
Cd45         O52   2.422       .  S
Cd45         O51   2.439       .  S
Cd45         O50   2.414       .  S
Cd45         O46   2.490       .  S
Cd45         O49   2.520       .  S
Cd45         O47   2.457       .  S
C48          O52   1.265       .  A
C48         C633   1.492       .  S
O53          C56   1.271       .  A
O53         Cd58   2.506       .  S
C54          O63   1.266       .  A
C54          O59   1.271       .  A
C54         C573   1.494       .  S
O55          C61   1.272       .  A
O55         Cd58   2.510       .  S
C56          O64   1.264       .  A
C56         C542   1.482   1_565  S
C57          O62   1.272       .  A
C57          O60   1.267       .  A
C57         C602   1.491       .  S
Cd58         O65   2.433       .  S
Cd58         O64   2.425       .  S
Cd58         O63   2.466       .  S
Cd58         O59   2.511       .  S
Cd58         O62   2.513       .  S
Cd58         O60   2.441       .  S
C61          O65   1.264       .  A
C61         C553   1.488       .  S
O66          C69   1.270       .  A
O66         Cd71   2.498       .  S
C67          O76   1.265   1_565  A
C67          O72   1.272   1_565  A
C67         C493   1.478       .  S
O68          C74   1.274       .  A
O68         Cd71   2.525       .  S
C69          O77   1.267       .  A
C69         C513   1.490       .  S
C70          O75   1.273       .  A
C70          O73   1.264       .  A
C70         C482   1.493       .  S
Cd71         O78   2.425       .  S
Cd71         O77   2.457       .  S
Cd71         O76   2.415       .  S
Cd71         O72   2.489       .  S
Cd71         O75   2.526       .  S
Cd71         O73   2.438       .  S
C74          O78   1.265       .  A
C74         C593   1.492       .  S
O79          C82   1.271       .  A
O79         Cd84   2.500       .  S
C80          O89   1.265       .  A
C80          O85   1.273       .  A
C80         C613   1.477       .  S
O81          C87   1.272       .  A
O81         Cd84   2.487       .  S
C82          O90   1.265       .  A
C82         C522   1.491       .  S
C83          O88   1.271       .  A
C83          O86   1.264       .  A
C83         C673   1.484       .  S
Cd84         O91   2.437       .  S
Cd84         O90   2.461       .  S
Cd84         O89   2.409       .  S
Cd84         O85   2.495       .  S
Cd84         O88   2.500       .  S
Cd84         O86   2.425       .  S
C87          O91   1.267       .  A
C87         C462   1.485       .  S
O92          C95   1.271       .  A
O92         Cd97   2.500       .  S
C93         O102   1.264       .  A
C93          O98   1.271       .  A
C93         C653   1.484       .  S
O94         C100   1.272       .  A
O94         Cd97   2.488       .  S
C95         O103   1.267       .  A
C95         C582   1.493       .  S
C96         O101   1.271       .  A
C96          O99   1.264       .  A
C96         C642   1.489       .  S
Cd97        O104   2.449       .  S
Cd97        O103   2.466       .  S
Cd97        O102   2.415       .  S
Cd97         O98   2.511       .  S
Cd97        O101   2.536       .  S
Cd97         O99   2.427       .  S
C100        O104   1.267       .  A
C100        C453   1.487       .  S
O105        C108   1.270       .  A
O105       Cd110   2.491       .  S
C106        O115   1.263       .  A
C106        O111   1.268       .  A
C106        C373   1.482   1_556  S
O107        C113   1.271       .  A
O107       Cd110   2.490       .  S
C108        O116   1.266       .  A
C108        C433   1.482       .  S
C109        O114   1.269       .  A
C109        O112   1.262       .  A
C109        C413   1.488       .  S
Cd110       O117   2.437       .  S
Cd110       O116   2.442       .  S
Cd110       O115   2.448       .  S
Cd110       O111   2.510       .  S
Cd110       O114   2.516       .  S
Cd110       O112   2.448       .  S
C113        O117   1.265       .  A
C113        C393   1.479   1_655  S
O118        C121   1.270       .  A
O118       Cd123   2.483       .  S
C119        O128   1.264       .  A
C119        O124   1.270       .  A
C119        C333   1.484   1_556  S
O120        C126   1.273   1_455  A
O120       Cd123   2.512       .  S
C121        O129   1.267       .  A
C121        C442   1.485       .  S
C122        O127   1.271       .  A
C122        O125   1.267       .  A
C122        C353   1.495       .  S
Cd123       O130   2.415       .  S
Cd123       O129   2.446       .  S
Cd123       O128   2.423       .  S
Cd123       O124   2.512       .  S
Cd123       O127   2.515       .  S
Cd123       O125   2.463       .  S
C126        O130   1.263   1_655  A
C126        C322   1.484       .  S
O131        C134   1.270       .  A
O131       Cd136   2.500       .  S
C132        O141   1.263       .  A
C132        O137   1.270       .  A
C132        C502   1.482       .  S
O133        C139   1.270       .  A
O133       Cd136   2.502       .  S
C134        O142   1.266       .  A
C134        C302   1.488       .  S
C135        O140   1.269       .  A
C135        O138   1.265       .  A
C135        C422   1.488       .  S
Cd136       O143   2.422       .  S
Cd136       O142   2.440       .  S
Cd136       O141   2.408       .  S
Cd136       O137   2.515       .  S
Cd136       O140   2.502       .  S
Cd136       O138   2.455       .  S
C139        O143   1.264       .  A
C139        C562   1.478       .  S
O144        C147   1.270       .  A
O144       Cd149   2.494       .  S
C145        O154   1.263       .  A
C145        O150   1.269       .  A
C145        C533   1.481       .  S
O146        C152   1.271       .  A
O146       Cd149   2.519       .  S
C147        O155   1.268       .  A
C147        C293   1.488       .  S
C148        O153   1.270       .  A
C148        O151   1.264       .  A
C148        C362   1.496       .  S
Cd149       O156   2.443       .  S
Cd149       O155   2.446       .  S
Cd149       O154   2.425       .  S
Cd149       O150   2.503       .  S
Cd149       O153   2.527       .  S
Cd149       O151   2.473       .  S
C152        O156   1.264       .  A
C152        C473   1.486       .  S
O157        C160   1.270       .  A
O157       Cd162   2.518       .  S
C158        O167   1.265       .  A
C158        O163   1.272   1_565  A
C158        C382   1.486       .  S
O159        C165   1.270       .  A
O159       Cd162   2.504       .  S
C160        O168   1.265       .  A
C160        C253   1.494       .  S
C161        O166   1.270       .  A
C161        O164   1.263       .  A
C161        C313   1.484       .  S
Cd162       O169   2.448       .  S
Cd162       O168   2.469       .  S
Cd162       O167   2.431   1_545  S
Cd162       O163   2.508       .  S
Cd162       O166   2.511       .  S
Cd162       O164   2.432       .  S
C165        O169   1.267       .  A
C165        C273   1.489       .  S
O170        C173   1.270       .  A
O170       Cd175   2.502       .  S
C171        O180   1.264       .  A
C171        O176   1.269       .  A
C171        C233   1.484       .  S
O172        C178   1.269       .  A
O172       Cd175   2.508       .  S
C173        O181   1.263       .  A
C173        C342   1.477   1_565  S
C174        O179   1.271       .  A
C174        O177   1.267       .  A
C174        C282   1.485       .  S
Cd175       O182   2.432       .  S
Cd175       O181   2.410       .  S
Cd175       O180   2.437       .  S
Cd175       O176   2.497       .  S
Cd175       O179   2.495       .  S
Cd175       O177   2.424       .  S
C178        O182   1.264       .  A
C178        C402   1.486       .  S
O183        C186   1.272       .  A
O183       Cd188   2.502       .  S
C184        O193   1.267       .  A
C184        O189   1.270       .  A
C184        C262   1.494       .  S
O185        C191   1.271       .  A
O185       Cd188   2.528       .  S
C186        O194   1.264       .  A
C186        C802   1.482       .  S
C187        O192   1.271       .  A
C187        O190   1.266       .  A
C187        C222   1.485       .  S
Cd188       O195   2.430       .  S
Cd188       O194   2.424       .  S
Cd188       O193   2.471       .  S
Cd188       O189   2.512       .  S
Cd188       O192   2.488       .  S
Cd188       O190   2.443       .  S
C191        O195   1.265       .  A
C191        C733   1.491       .  S
O196        C199   1.272       .  A
O196       Cd201   2.490       .  S
C197        O206   1.264       .  A
C197        O202   1.270       .  A
C197        C242   1.484       .  S
O198        C204   1.271       .  A
O198       Cd201   2.514       .  S
C199        O207   1.265       .  A
C199        C722   1.476       .  S
C200        O205   1.272       .  A
C200        O203   1.266       .  A
C200        C213   1.482       .  S
Cd201       O208   2.415       .  S
Cd201       O207   2.405       .  S
Cd201       O206   2.436       .  S
Cd201       O202   2.497       .  S
Cd201       O205   2.491       .  S
Cd201       O203   2.418       .  S
C204        O208   1.263       .  A
C204        C782   1.482       .  S
C209        C210   1.406       .  A
C209        C214   1.404       .  A
C209        H219   1.083       .  S
C210        C215   1.483       .  S
C210        C211   1.404       .  A
C211        C212   1.395       .  A
C211        F216   1.358       .  S
C212        C213   1.406       .  A
C212        H217   1.083       .  S
C213        C214   1.408       .  A
C214        F218   1.357       .  S
C215        C220   1.406       .  A
C215        C224   1.404       .  A
C220        C221   1.398       .  A
C220        F225   1.358       .  S
C221        C222   1.407       .  A
C221        H226   1.083       .  S
C222        C223   1.410       .  A
C223        C224   1.402       .  A
C223        F227   1.357       .  S
C224        H228   1.083       .  S
C229        C230   1.402       .  A
C229        C234   1.397       .  A
C229        H239   1.083       .  S
C230        C235   1.484       .  S
C230        C231   1.408       .  A
C231        C232   1.402       .  A
C231        F236   1.358       .  S
C232        C233   1.406       .  A
C232        H237   1.083       .  S
C233        C234   1.410       .  A
C234        F238   1.357       .  S
C235        C240   1.408       .  A
C235        C244   1.402       .  A
C240        C241   1.402       .  A
C240        F245   1.357       .  S
C241        C242   1.406       .  A
C241        H246   1.083       .  S
C242        C243   1.410       .  A
C243        C244   1.397       .  A
C243        F247   1.357       .  S
C244        H248   1.083       .  S
C249        C250   1.404       .  A
C249        C254   1.402       .  A
C249        H259   1.083       .  S
C250        C255   1.494       .  S
C250        C251   1.409       .  A
C251        C252   1.406       .  A
C251        F256   1.357       .  S
C252        C253   1.408       .  A
C252        H257   1.083       .  S
C253        C254   1.412       .  A
C254        F258   1.357       .  S
C255        C260   1.409       .  A
C255        C264   1.404       .  A
C260        C261   1.406       .  A
C260        F265   1.357       .  S
C261        C262   1.408       .  A
C261        H266   1.083       .  S
C262        C263   1.411       .  A
C263        C264   1.402       .  A
C263        F267   1.357       .  S
C264        H268   1.083       .  S
C269        C270   1.405   1_545  A
C269        C274   1.405       .  A
C269        H279   1.083       .  S
C270        C275   1.487       .  S
C270        C271   1.406       .  A
C271        C272   1.397   1_565  A
C271        F276   1.358       .  S
C272        C273   1.406       .  A
C272        H277   1.083       .  S
C273        C274   1.411       .  A
C274        F278   1.357       .  S
C275        C280   1.405       .  A
C275        C284   1.407       .  A
C280        C281   1.395       .  A
C280        F285   1.358   1_565  S
C281        C282   1.406       .  A
C281        H286   1.083       .  S
C282        C283   1.409       .  A
C283        C284   1.405       .  A
C283        F287   1.357       .  S
C284        H288   1.083       .  S
C289        C290   1.408       .  A
C289        C294   1.405       .  A
C289        H299   1.083       .  S
C290        C295   1.493       .  S
C290        C291   1.408       .  A
C291        C292   1.396       .  A
C291        F296   1.358       .  S
C292        C293   1.405       .  A
C292        H297   1.083       .  S
C293        C294   1.411       .  A
C294        F298   1.357       .  S
C295        C300   1.410       .  A
C295        C304   1.404       .  A
C300        C301   1.405       .  A
C300        F305   1.357       .  S
C301        C302   1.407       .  A
C301        H306   1.083       .  S
C302        C303   1.409       .  A
C303        C304   1.396       .  A
C303        F307   1.357       .  S
C304        H308   1.083       .  S
C309        C310   1.407       .  A
C309        C314   1.403   1_556  A
C309        H319   1.083       .  S
C310        C315   1.487       .  S
C310        C311   1.406   1_556  A
C311        C312   1.398       .  A
C311        F316   1.358       .  S
C312        C313   1.407       .  A
C312        H317   1.083       .  S
C313        C314   1.407       .  A
C314        F318   1.357       .  S
C315        C320   1.409       .  A
C315        C324   1.403       .  A
C320        C321   1.403       .  A
C320        F325   1.357       .  S
C321        C322   1.405       .  A
C321        H326   1.083       .  S
C322        C323   1.410       .  A
C323        C324   1.397       .  A
C323        F327   1.358       .  S
C324        H328   1.084       .  S
C329        C330   1.406       .  A
C329        C334   1.404       .  A
C329        H339   1.083       .  S
C330        C335   1.484       .  S
C330        C331   1.405       .  A
C331        C332   1.394       .  A
C331        F336   1.358       .  S
C332        C333   1.406       .  A
C332        H337   1.083   1_554  S
C333        C334   1.409       .  A
C334        F338   1.357       .  S
C335        C340   1.405       .  A
C335        C344   1.407       .  A
C340        C341   1.396       .  A
C340        F345   1.357       .  S
C341        C342   1.405       .  A
C341        H346   1.084       .  S
C342        C343   1.406       .  A
C343        C344   1.401       .  A
C343        F347   1.357       .  S
C344        H348   1.083       .  S
C349        C350   1.407       .  A
C349        C354   1.407       .  A
C349        H359   1.083       .  S
C350        C355   1.494       .  S
C350        C351   1.406       .  A
C351        C352   1.401       .  A
C351        F356   1.357       .  S
C352        C353   1.408       .  A
C352        H357   1.083       .  S
C353        C354   1.411       .  A
C354        F358   1.357       .  S
C355        C360   1.409       .  A
C355        C364   1.403       .  A
C360        C361   1.405       .  A
C360        F365   1.357       .  S
C361        C362   1.407       .  A
C361        H366   1.083       .  S
C362        C363   1.413       .  A
C363        C364   1.403       .  A
C363        F367   1.357       .  S
C364        H368   1.084       .  S
C369        C370   1.407       .  A
C369        C374   1.403       .  A
C369        H379   1.083       .  S
C370        C375   1.489       .  S
C370        C371   1.407       .  A
C371        C372   1.399       .  A
C371        F376   1.358       .  S
C372        C373   1.405       .  A
C372        H377   1.084       .  S
C373        C374   1.407       .  A
C374        F378   1.357       .  S
C375        C380   1.407       .  A
C375        C384   1.407       .  A
C380        C381   1.397       .  A
C380        F385   1.358       .  S
C381        C382   1.406       .  A
C381        H386   1.083       .  S
C382        C383   1.408       .  A
C383        C384   1.404       .  A
C383        F387   1.357       .  S
C384        H388   1.083       .  S
C389        C390   1.403       .  A
C389        C394   1.401       .  A
C389        H399   1.083       .  S
C390        C395   1.482       .  S
C390        C391   1.406       .  A
C391        C392   1.399       .  A
C391        F396   1.357       .  S
C392        C393   1.403       .  A
C392        H397   1.083       .  S
C393        C394   1.410       .  A
C394        F398   1.358       .  S
C395        C400   1.404   1_556  A
C395        C404   1.405       .  A
C400        C401   1.394       .  A
C400        F405   1.358       .  S
C401        C402   1.406       .  A
C401        H406   1.083       .  S
C402        C403   1.410       .  A
C403        C404   1.405   1_554  A
C403        F407   1.357   1_554  S
C404        H408   1.083       .  S
C409        C410   1.403       .  A
C409        C414   1.399       .  A
C409        H419   1.083       .  S
C410        C415   1.489       .  S
C410        C411   1.409       .  A
C411        C412   1.403       .  A
C411        F416   1.357       .  S
C412        C413   1.406       .  A
C412        H417   1.083       .  S
C413        C414   1.411       .  A
C414        F418   1.357       .  S
C415        C420   1.406       .  A
C415        C424   1.407       .  A
C420        C421   1.399       .  A
C420        F425   1.357       .  S
C421        C422   1.407       .  A
C421        H426   1.083       .  S
C422        C423   1.409       .  A
C423        C424   1.403       .  A
C423        F427   1.357       .  S
C424        H428   1.083       .  S
C429        C430   1.402   1_455  A
C429        C434   1.397   1_455  A
C429        H439   1.083       .  S
C430        C435   1.483       .  S
C430        C431   1.407       .  A
C431        C432   1.403       .  A
C431        F436   1.357       .  S
C432        C433   1.406       .  A
C432        H437   1.083       .  S
C433        C434   1.409       .  A
C434        F438   1.358   1_655  S
C435        C440   1.405   1_655  A
C435        C444   1.404   1_655  A
C440        C441   1.399       .  A
C440        F445   1.358   1_455  S
C441        C442   1.407       .  A
C441        H446   1.083       .  S
C442        C443   1.409       .  A
C443        C444   1.402       .  A
C443        F447   1.357       .  S
C444        H448   1.083       .  S
C449        C450   1.403       .  A
C449        C454   1.400       .  A
C449        H459   1.083       .  S
C450        C455   1.484   1_455  S
C450        C451   1.406       .  A
C451        C452   1.402       .  A
C451        F456   1.357       .  S
C452        C453   1.406       .  A
C452        H457   1.083       .  S
C453        C454   1.411       .  A
C454        F458   1.358       .  S
C455        C460   1.407       .  A
C455        C464   1.402       .  A
C460        C461   1.402       .  A
C460        F465   1.357       .  S
C461        C462   1.406       .  A
C461        H466   1.083       .  S
C462        C463   1.411       .  A
C463        C464   1.399       .  A
C463        F467   1.358       .  S
C464        H468   1.084       .  S
C469        C470   1.407       .  A
C469        C474   1.405       .  A
C469        H479   1.083       .  S
C470        C475   1.488       .  S
C470        C471   1.405       .  A
C471        C472   1.400       .  A
C471        F476   1.357       .  S
C472        C473   1.407       .  A
C472        H477   1.083       .  S
C473        C474   1.408       .  A
C474        F478   1.357       .  S
C475        C480   1.407       .  A
C475        C484   1.401       .  A
C480        C481   1.406       .  A
C480        F485   1.357       .  S
C481        C482   1.408       .  A
C481        H486   1.083       .  S
C482        C483   1.413       .  A
C483        C484   1.399       .  A
C483        F487   1.358       .  S
C484        H488   1.084       .  S
C489        C490   1.406       .  A
C489        C494   1.400       .  A
C489        H499   1.083       .  S
C490        C495   1.480       .  S
C490        C491   1.404       .  A
C491        C492   1.396       .  A
C491        F496   1.358       .  S
C492        C493   1.406       .  A
C492        H497   1.083       .  S
C493        C494   1.406       .  A
C494        F498   1.357       .  S
C495        C500   1.403       .  A
C495        C504   1.406       .  A
C500        C501   1.392       .  A
C500        F505   1.358       .  S
C501        C502   1.406       .  A
C501        H506   1.083       .  S
C502        C503   1.409       .  A
C503        C504   1.404       .  A
C503        F507   1.357       .  S
C504        H508   1.083       .  S
C509        C510   1.405       .  A
C509        C514   1.399       .  A
C509        H519   1.083       .  S
C510        C515   1.496       .  S
C510        C511   1.411       .  A
C511        C512   1.404       .  A
C511        F516   1.357       .  S
C512        C513   1.407       .  A
C512        H517   1.083       .  S
C513        C514   1.410       .  A
C514        F518   1.357       .  S
C515        C520   1.410       .  A
C515        C524   1.406       .  A
C520        C521   1.401       .  A
C520        F525   1.357       .  S
C521        C522   1.405       .  A
C521        H526   1.083       .  S
C522        C523   1.412       .  A
C523        C524   1.403       .  A
C523        F527   1.357       .  S
C524        H528   1.083       .  S
C529        C530   1.407       .  A
C529        C534   1.403       .  A
C529        H539   1.083       .  S
C530        C535   1.486       .  S
C530        C531   1.406       .  A
C531        C532   1.395       .  A
C531        F536   1.358       .  S
C532        C533   1.405       .  A
C532        H537   1.083       .  S
C533        C534   1.407       .  A
C534        F538   1.357       .  S
C535        C540   1.406       .  A
C535        C544   1.407       .  A
C540        C541   1.397       .  A
C540        F545   1.358       .  S
C541        C542   1.406       .  A
C541        H546   1.083       .  S
C542        C543   1.407       .  A
C543        C544   1.402       .  A
C543        F547   1.357       .  S
C544        H548   1.083       .  S
C549        C550   1.402       .  A
C549        C554   1.398       .  A
C549        H559   1.084       .  S
C550        C555   1.484       .  S
C550        C551   1.406       .  A
C551        C552   1.403       .  A
C551        F556   1.357       .  S
C552        C553   1.406       .  A
C552        H557   1.083       .  S
C553        C554   1.413       .  A
C554        F558   1.358       .  S
C555        C560   1.405       .  A
C555        C564   1.407       .  A
C560        C561   1.396       .  A
C560        F565   1.357       .  S
C561        C562   1.404       .  A
C561        H566   1.083       .  S
C562        C563   1.407       .  A
C563        C564   1.403       .  A
C563        F567   1.358       .  S
C564        H568   1.083       .  S
C569        C570   1.404       .  A
C569        C574   1.402       .  A
C569        H579   1.083       .  S
C570        C575   1.493       .  S
C570        C571   1.408       .  A
C571        C572   1.405       .  A
C571        F576   1.357       .  S
C572        C573   1.408       .  A
C572        H577   1.083       .  S
C573        C574   1.412       .  A
C574        F578   1.357       .  S
C575        C580   1.408       .  A
C575        C584   1.405       .  A
C580        C581   1.404       .  A
C580        F585   1.357       .  S
C581        C582   1.407       .  A
C581        H586   1.083       .  S
C582        C583   1.412       .  A
C583        C584   1.403       .  A
C583        F587   1.357       .  S
C584        H588   1.083       .  S
C589        C590   1.403       .  A
C589        C594   1.397       .  A
C589        H599   1.083       .  S
C590        C595   1.494   1_655  S
C590        C591   1.411   1_565  A
C591        C592   1.407       .  A
C591        F596   1.357   1_655  S
C592        C593   1.407       .  A
C592        H597   1.083       .  S
C593        C594   1.412   1_545  A
C594        F598   1.358       .  S
C595        C600   1.410       .  A
C595        C604   1.405       .  A
C600        C601   1.407       .  A
C600        F605   1.357       .  S
C601        C602   1.408       .  A
C601        H606   1.083       .  S
C602        C603   1.410       .  A
C603        C604   1.398       .  A
C603        F607   1.357       .  S
C604        H608   1.083       .  S
C609        C610   1.407       .  A
C609        C614   1.401       .  A
C609        H619   1.083       .  S
C610        C615   1.486       .  S
C610        C611   1.407       .  A
C611        C612   1.396       .  A
C611        F616   1.358       .  S
C612        C613   1.405       .  A
C612        H617   1.083       .  S
C613        C614   1.406       .  A
C614        F618   1.357       .  S
C615        C620   1.407       .  A
C615        C624   1.407       .  A
C620        C621   1.394       .  A
C620        F625   1.358       .  S
C621        C622   1.404       .  A
C621        H626   1.083       .  S
C622        C623   1.407       .  A
C623        C624   1.402       .  A
C623        F627   1.357       .  S
C624        H628   1.083       .  S
C629        C630   1.403       .  A
C629        C634   1.396       .  A
C629        H639   1.083       .  S
C630        C635   1.492       .  S
C630        C631   1.409       .  A
C631        C632   1.409       .  A
C631        F636   1.357       .  S
C632        C633   1.408       .  A
C632        H637   1.083       .  S
C633        C634   1.411       .  A
C634        F638   1.358       .  S
C635        C640   1.407       .  A
C635        C644   1.408       .  A
C640        C641   1.394       .  A
C640        F645   1.358       .  S
C641        C642   1.404       .  A
C641        H646   1.083       .  S
C642        C643   1.411       .  A
C643        C644   1.410       .  A
C643        F647   1.357       .  S
C644        H648   1.083       .  S
C649        C650   1.406       .  A
C649        C654   1.403       .  A
C649        H659   1.083       .  S
C650        C655   1.482       .  S
C650        C651   1.404       .  A
C651        C652   1.395       .  A
C651        F656   1.358       .  S
C652        C653   1.407       .  A
C652        H657   1.083       .  S
C653        C654   1.408       .  A
C654        F658   1.357       .  S
C655        C660   1.404       .  A
C655        C664   1.407       .  A
C660        C661   1.395       .  A
C660        F665   1.358       .  S
C661        C662   1.405       .  A
C661        H666   1.084       .  S
C662        C663   1.407       .  A
C663        C664   1.403       .  A
C663        F667   1.357       .  S
C664        H668   1.083       .  S
C669        C670   1.405       .  A
C669        C674   1.401       .  A
C669        H679   1.083       .  S
C670        C675   1.480       .  S
C670        C671   1.404       .  A
C671        C672   1.396       .  A
C671        F676   1.358       .  S
C672        C673   1.408       .  A
C672        H677   1.083       .  S
C673        C674   1.408       .  A
C674        F678   1.357       .  S
C675        C680   1.407       .  A
C675        C684   1.401       .  A
C680        C681   1.401       .  A
C680        F685   1.357       .  S
C681        C682   1.405       .  A
C681        H686   1.083       .  S
C682        C683   1.407       .  A
C683        C684   1.395       .  A
C683        F687   1.358       .  S
C684        H688   1.083       .  S
C689        C690   1.404       .  A
C689        C694   1.398       .  A
C689        H699   1.083       .  S
C690        C695   1.485   1_545  S
C690        C691   1.407       .  A
C691        C692   1.399       .  A
C691        F696   1.357       .  S
C692        C693   1.405       .  A
C692        H697   1.083       .  S
C693        C694   1.409       .  A
C694        F698   1.358       .  S
C695        C700   1.406       .  A
C695        C704   1.406       .  A
C700        C701   1.396       .  A
C700        F705   1.358       .  S
C701        C702   1.406       .  A
C701        H706   1.083       .  S
C702        C703   1.408       .  A
C703        C704   1.401       .  A
C703        F707   1.357       .  S
C704        H708   1.083       .  S
C709        C710   1.404       .  A
C709        C714   1.395       .  A
C709        H719   1.083       .  S
C710        C715   1.484       .  S
C710        C711   1.408       .  A
C711        C712   1.401       .  A
C711        F716   1.357       .  S
C712        C713   1.404       .  A
C712        H717   1.083       .  S
C713        C714   1.407       .  A
C714        F718   1.358       .  S
C715        C720   1.409       .  A
C715        C724   1.403       .  A
C720        C721   1.400       .  A
C720        F725   1.357       .  S
C721        C722   1.403       .  A
C721        H726   1.083       .  S
C722        C723   1.407       .  A
C723        C724   1.396       .  A
C723        F727   1.358       .  S
C724        H728   1.083       .  S
C729        C730   1.409       .  A
C729        C734   1.408       .  A
C729        H739   1.083       .  S
C730        C735   1.492       .  S
C730        C731   1.406       .  A
C731        C732   1.396       .  A
C731        F736   1.358       .  S
C732        C733   1.407       .  A
C732        H737   1.083       .  S
C733        C734   1.410       .  A
C734        F738   1.357       .  S
C735        C740   1.411       .  A
C735        C744   1.404       .  A
C740        C741   1.403       .  A
C740        F745   1.357       .  S
C741        C742   1.403       .  A
C741        H746   1.083       .  S
C742        C743   1.408       .  A
C743        C744   1.401       .  A
C743        F747   1.358       .  S
C744        H748   1.083       .  S
C749        C750   1.402       .  A
C749        C754   1.400       .  A
C749        H759   1.084       .  S
C750        C755   1.488       .  S
C750        C751   1.409       .  A
C751        C752   1.403       .  A
C751        F756   1.357       .  S
C752        C753   1.406       .  A
C752        H757   1.083       .  S
C753        C754   1.413       .  A
C754        F758   1.357       .  S
C755        C760   1.405       .  A
C755        C764   1.407       .  A
C760        C761   1.397       .  A
C760        F765   1.357       .  S
C761        C762   1.407       .  A
C761        H766   1.083       .  S
C762        C763   1.409       .  A
C763        C764   1.404       .  A
C763        F767   1.357       .  S
C764        H768   1.083       .  S
C769        C770   1.403       .  A
C769        C774   1.398       .  A
C769        H779   1.083       .  S
C770        C775   1.487       .  S
C770        C771   1.410       .  A
C771        C772   1.402       .  A
C771        F776   1.357       .  S
C772        C773   1.404       .  A
C772        H777   1.083       .  S
C773        C774   1.409       .  A
C774        F778   1.358       .  S
C775        C780   1.406       .  A
C775        C784   1.408       .  A
C780        C781   1.395       .  A
C780        F785   1.358       .  S
C781        C782   1.405       .  A
C781        H786   1.083       .  S
C782        C783   1.407       .  A
C783        C784   1.404       .  A
C783        F787   1.357       .  S
C784        H788   1.083       .  S
C789        C790   1.408       .  A
C789        C794   1.406       .  A
C789        H799   1.083       .  S
C790        C795   1.486       .  S
C790        C791   1.405       .  A
C791        C792   1.392       .  A
C791        F796   1.358       .  S
C792        C793   1.404       .  A
C792        H797   1.083       .  S
C793        C794   1.409       .  A
C794        F798   1.357       .  S
C795        C800   1.405       .  A
C795        C804   1.407       .  A
C800        C801   1.399       .  A
C800        F805   1.358       .  S
C801        C802   1.408       .  A
C801        H806   1.083       .  S
C802        C803   1.406       .  A
C803        C804   1.400       .  A
C803        F807   1.357       .  S
C804        H808   1.083       .  S
C809        C810   1.403       .  A
C809        C814   1.398       .  A
C809        H819   1.083       .  S
C810        C815   1.494       .  S
C810        C811   1.411       .  A
C811        C812   1.408       .  A
C811        F816   1.357       .  S
C812        C813   1.408       .  A
C812        H817   1.083       .  S
C813        C814   1.410       .  A
C814        F818   1.357       .  S
C815        C820   1.406       .  A
C815        C824   1.408       .  A
C820        C821   1.403       .  A
C820        F825   1.357       .  S
C821        C822   1.410       .  A
C821        H826   1.083       .  S
C822        C823   1.408       .  A
C823        C824   1.403       .  A
C823        F827   1.357       .  S
C824        H828   1.083       .  S
C829        C830   1.406       .  A
C829        C834   1.404       .  A
C829        H839   1.083       .  S
C830        C835   1.486   1_665  S
C830        C831   1.406       .  A
C831        C832   1.395       .  A
C831        F836   1.358       .  S
C832        C833   1.404       .  A
C832        H837   1.083       .  S
C833        C834   1.411       .  A
C834        F838   1.357       .  S
C835        C840   1.409       .  A
C835        C844   1.402   1_455  A
C840        C841   1.404       .  A
C840        F845   1.357   1_545  S
C841        C842   1.407       .  A
C841        H846   1.083       .  S
C842        C843   1.408       .  A
C843        C844   1.394   1_455  A
C843        F847   1.358   1_455  S
C844        H848   1.083       .  S
