geometry optimzed in LAMMPS
_audit_creation_date              2020-12-01 
_audit_creation_method            'lammps2cif' 
_symmetry_space_group_name_H-M    'P1' 
_symmetry_Int_Tables_number       1 
_symmetry_cell_setting            triclinic 
loop_ 
_symmetry_equiv_pos_as_xyz 
  x,y,z 
_cell_length_a                    87.21840042 
_cell_length_b                    87.09763643127016 
_cell_length_c                    27.118972326431514 
_cell_angle_alpha                 90.16811933784373 
_cell_angle_beta                  89.83247971607075 
_cell_angle_gamma                 90.01249547645124 
loop_ 
_atom_site_label 
_atom_site_type_symbol 
_atom_site_fract_x 
_atom_site_fract_y 
_atom_site_fract_z 
_atom_site_charge 
In1        In  0.82871705  0.20213400  0.08186309     1.36900
C2          C  0.79915753  0.19510054  0.06527019     0.78200
O3          O  0.82797957  0.20425266  0.16437466    -0.60300
O4          O  0.83427168  0.22395645  0.12321313    -0.51200
C5          C  0.84975455  0.18070031  0.10052318     0.70800
O6          O  0.83560173  0.17868071  0.10777812    -0.46100
C7          C  0.83417354  0.21568668  0.99558105     0.75500
O8          O  0.81013886  0.18695745  0.05023389    -0.57900
O9          O  0.83101698  0.22310799  0.03426735    -0.48000
O10         O  0.80338524  0.20636678  0.09099095    -0.54300
C11         C  0.83195152  0.21817180  0.16518364     0.85700
O12         O  0.85306396  0.19363823  0.08252738    -0.56200
O13         O  0.83535325  0.20139775  0.00172415    -0.59500
In14       In  0.82767561  0.28623104  0.58229759     1.36900
C15         C  0.79852060  0.29279652  0.56034257     0.78200
O16         O  0.83564536  0.28591328  0.50306427    -0.60300
O17         O  0.82836014  0.26502457  0.53537205    -0.51200
C18         C  0.84826564  0.30819231  0.60010670     0.70800
O19         O  0.83400530  0.31028149  0.60448315    -0.46100
C20         C  0.83030908  0.27158345  0.66841616     0.75500
O21         O  0.80932875  0.30224391  0.55463152    -0.57900
O22         O  0.83644700  0.26688241  0.62901223    -0.48000
O23         O  0.80258744  0.28038457  0.58011382    -0.54300
C24         C  0.83279109  0.27184410  0.49698253     0.85700
O25         O  0.85191600  0.29488057  0.58575075    -0.56200
O26         O  0.82266687  0.28375572  0.66315756    -0.59500
In27       In  0.66195034  0.19785854  0.91729348     1.36900
C28         C  0.69009474  0.18916436  0.94445810     0.78200
O29         O  0.66823905  0.20165989  0.83785296    -0.60300
O30         O  0.65180391  0.21654111  0.86968101    -0.51200
C31         C  0.64167736  0.17529995  0.90154167     0.70800
O32         O  0.65571017  0.17403426  0.89087709    -0.46100
C33         C  0.65850188  0.21586639  0.99626533     0.75500
O34         O  0.67811188  0.18376291  0.96391608    -0.57900
O35         O  0.66575317  0.21998689  0.95825970    -0.48000
O36         O  0.68758848  0.19815449  0.90910372    -0.54300
C37         C  0.65954578  0.21306204  0.83186334     0.85700
O38         O  0.63812821  0.18798703  0.92087976    -0.56200
O39         O  0.65219297  0.20288397  0.99265602    -0.59500
In40       In  0.66120390  0.28335262  0.41652339     1.36900
C41         C  0.69051599  0.29051142  0.43122673     0.78200
O42         O  0.65530098  0.28375100  0.49758542    -0.60300
O43         O  0.65985676  0.26230229  0.46434675    -0.51200
C44         C  0.63944521  0.30435659  0.40414295     0.70800
O45         O  0.65348847  0.30764267  0.40715101    -0.46100
C46         C  0.65997341  0.26986694  0.32797485     0.75500
O47         O  0.68018817  0.30058625  0.42777085    -0.57900
O48         O  0.65289379  0.26477947  0.36510338    -0.48000
O49         O  0.68573195  0.27695514  0.42597369    -0.54300
C50         C  0.65684605  0.26948779  0.50361273     0.85700
O51         O  0.63652613  0.29023670  0.40859653    -0.56200
O52         O  0.66772554  0.28177757  0.33645107    -0.59500
In53       In  0.96164402  0.91021610  0.33844044     1.36900
C54         C  0.95447454  0.93878935  0.31328270     0.78200
O55         O  0.96631728  0.91767133  0.41619180    -0.60300
O56         O  0.97925712  0.89911241  0.38678773    -0.51200
C57         C  0.93910378  0.89059009  0.35887966     0.70800
O58         O  0.93777012  0.90488825  0.36532183    -0.46100
C59         C  0.97783221  0.90534718  0.25671136     0.75500
O60         O  0.94669692  0.92737770  0.29919419    -0.57900
O61         O  0.98351740  0.91100885  0.29534764    -0.48000
O62         O  0.96532829  0.93555858  0.34197059    -0.54300
C63         C  0.97659327  0.90774027  0.42326786     0.85700
O64         O  0.95185471  0.88651810  0.34123553    -0.56200
O65         O  0.96404101  0.90121183  0.26081801    -0.59500
In66       In  0.04481058  0.91159105  0.83926638     1.36900
C67         C  0.04913298  0.94155430  0.82470300     0.78200
O68         O  0.04491804  0.90816629  0.75688349    -0.60300
O69         O  0.02381512  0.90637403  0.79438729    -0.51200
C70         C  0.06642397  0.89030930  0.85373909     0.70800
O71         O  0.06927937  0.90449790  0.85551666    -0.46100
C72         C  0.03110572  0.90879508  0.92620058     0.75500
O73         O  0.05943773  0.93164577  0.81722246    -0.57900
O74         O  0.02545889  0.90345529  0.88698556    -0.48000
O75         O  0.03689071  0.93612705  0.84222185    -0.54300
C76         C  0.03064784  0.90612503  0.75339207     0.85700
O77         O  0.05276790  0.88718700  0.84254452    -0.56200
O78         O  0.04367045  0.91576941  0.92070543    -0.59500
In79       In  0.95295748  0.08062283  0.19974156     1.36900
C80         C  0.95081020  0.05017035  0.21059679     0.78200
O81         O  0.95666000  0.07551144  0.11947292    -0.60300
O82         O  0.97237339  0.09034906  0.15521693    -0.51200
C83         C  0.93036203  0.10081000  0.18496778     0.70800
O84         O  0.92813049  0.08650465  0.18588011    -0.46100
C85         C  0.96402264  0.08667243  0.28906390     0.75500
O86         O  0.93938381  0.05848126  0.20051270    -0.57900
O87         O  0.97197250  0.08763293  0.25030560    -0.48000
O88         O  0.96315612  0.05757824  0.21445245    -0.54300
C89         C  0.96839229  0.08385920  0.11574385     0.85700
O90         O  0.94405386  0.10464057  0.19290886    -0.56200
O91         O  0.95011890  0.08333712  0.28171064    -0.59500
In92       In  0.03604422  0.08177839  0.70021239     1.36900
C93         C  0.04333447  0.05246209  0.71798638     0.78200
O94         O  0.03606159  0.09143359  0.77780274    -0.60300
O95         O  0.01556823  0.08196460  0.75043769    -0.51200
C96         C  0.05777059  0.10235213  0.68123940     0.70800
O97         O  0.06010944  0.08806222  0.67948206    -0.46100
C98         C  0.02053486  0.08412396  0.61536039     0.75500
O99         O  0.05227141  0.06345293  0.72729705    -0.57900
O100        O  0.01544814  0.08890125  0.65617132    -0.48000
O101        O  0.03096677  0.05667266  0.69851565    -0.54300
C102        C  0.02222596  0.08821721  0.78640682     0.85700
O103        O  0.04422964  0.10602999  0.69284282    -0.56200
O104        O  0.03365480  0.07813121  0.61830578    -0.59500
In105      In  0.94865334  0.41314032  0.67605158     1.36900
C106        C  0.94311830  0.44286490  0.69316760     0.78200
O107        O  0.94960934  0.40594613  0.75613246    -0.60300
O108        O  0.97028328  0.41203252  0.72042306    -0.51200
C109        C  0.92745750  0.39142337  0.66349750     0.70800
O110        O  0.92403291  0.40538370  0.66982142    -0.46100
C111        C  0.96132567  0.41090140  0.58667601     0.75500
O112        O  0.93292281  0.43265922  0.69753665    -0.57900
O113        O  0.96683831  0.40459894  0.62449891    -0.48000
O114        O  0.95579866  0.43783647  0.67782014    -0.54300
C115        C  0.96383650  0.40813621  0.76003155     0.85700
O116        O  0.94162724  0.38860107  0.66464877    -0.56200
O117        O  0.94931793  0.41859477  0.59490325    -0.59500
In118      In  0.03214112  0.41208874  0.17502245     1.36900
C119        C  0.03809819  0.44134818  0.19708442     0.78200
O120        O  0.03104635  0.41607487  0.09348485    -0.60300
O121        O  0.01263863  0.40416751  0.12797562    -0.51200
C122        C  0.05458702  0.39199952  0.15865694     0.70800
O123        O  0.05681176  0.40631860  0.15936442    -0.46100
C124        C  0.01633702  0.40633736  0.25730621     0.75500
O125        O  0.04634757  0.43044170  0.21199737    -0.57900
O126        O  0.01027718  0.41186702  0.21920110    -0.48000
O127        O  0.02746348  0.43728147  0.16861191    -0.54300
C128        C  0.01827053  0.40945211  0.08863875     0.85700
O129        O  0.04091560  0.38802581  0.16699011    -0.56200
O130        O  0.03027581  0.40287089  0.25203006    -0.59500
In131      In  0.95302806  0.58233333  0.82701273     1.36900
C132        C  0.94713394  0.55288237  0.80901335     0.78200
O133        O  0.95174314  0.58418211  0.74506500    -0.60300
O134        O  0.97257463  0.59059097  0.77978341    -0.51200
C135        C  0.93285758  0.60479692  0.84095408     0.70800
O136        O  0.92919527  0.59079345  0.84086274    -0.46100
C137        C  0.96656039  0.58190419  0.91489239     0.75500
O138        O  0.93673174  0.56287798  0.81262081    -0.57900
O139        O  0.97385910  0.58422826  0.87540179    -0.48000
O140        O  0.96044132  0.55797912  0.81662355    -0.54300
C141        C  0.96545376  0.58845728  0.73988862     0.85700
O142        O  0.94688251  0.60728953  0.83274098    -0.56200
O143        O  0.95243437  0.57952547  0.90912451    -0.59500
In144      In  0.03573097  0.58076142  0.32867811     1.36900
C145        C  0.04262175  0.55163964  0.30955121     0.78200
O146        O  0.02999977  0.57545499  0.40681655    -0.60300
O147        O  0.01844693  0.59414540  0.37356439    -0.51200
C148        C  0.05912468  0.59972573  0.34529146     0.70800
O149        O  0.05876185  0.58619123  0.36163171    -0.46100
C150        C  0.01962737  0.58413585  0.24639683     0.75500
O151        O  0.05073063  0.56262658  0.29422435    -0.57900
O152        O  0.01359471  0.58044136  0.28696745    -0.48000
O153        O  0.03155065  0.55559429  0.33663775    -0.54300
C154        C  0.02043632  0.58620216  0.41189302     0.85700
O155        O  0.04764129  0.60333005  0.31970176    -0.56200
O156        O  0.03378752  0.58692075  0.24875595    -0.59500
In157      In  0.83502240  0.79126139  0.45609242     1.36900
C158        C  0.80511490  0.79652780  0.46748616     0.78200
O159        O  0.83179369  0.78878294  0.37446472    -0.60300
O160        O  0.84135847  0.77009838  0.41336658    -0.51200
C161        C  0.85664684  0.81231981  0.43978373     0.70800
O162        O  0.84256342  0.81486584  0.43374175    -0.46100
C163        C  0.83920993  0.77918767  0.54506050     0.75500
O164        O  0.81507362  0.80694495  0.47185574    -0.57900
O165        O  0.84171784  0.77179654  0.50583679    -0.48000
O166        O  0.81053626  0.78365191  0.45527298    -0.54300
C167        C  0.83710538  0.77533279  0.37232981     0.85700
O168        O  0.85958948  0.79906885  0.45566025    -0.56200
O169        O  0.83537696  0.79299398  0.53877021    -0.59500
In170      In  0.83439753  0.70776255  0.95622431     1.36900
C171        C  0.80488303  0.70126259  0.97033057     0.78200
O172        O  0.84134629  0.70558495  0.03581753    -0.60300
O173        O  0.83678005  0.72771433  0.00792526    -0.51200
C174        C  0.85500266  0.68629207  0.93356146     0.70800
O175        O  0.84115288  0.68321465  0.94256976    -0.46100
C176        C  0.83601755  0.72355114  0.87238929     0.75500
O177        O  0.81511550  0.69105162  0.96839651    -0.57900
O178        O  0.84373972  0.72700787  0.91006681    -0.48000
O179        O  0.80978156  0.71473104  0.96397495    -0.54300
C180        C  0.84020879  0.71972547  0.04485766     0.85700
O181        O  0.85836942  0.70031891  0.93739845    -0.56200
O182        O  0.82733243  0.71211661  0.87823899    -0.59500
In183      In  0.66464673  0.78378287  0.58272116     1.36900
C184        C  0.69406842  0.79152509  0.57048453     0.78200
O185        O  0.66907462  0.78101623  0.66349097    -0.60300
O186        O  0.65557019  0.76418161  0.62805983    -0.51200
C187        C  0.64293851  0.80498646  0.59861645     0.70800
O188        O  0.65709828  0.80768843  0.60157748    -0.46100
C189        C  0.66132886  0.76968106  0.49581790     0.75500
O190        O  0.68313846  0.80063722  0.56245482    -0.57900
O191        O  0.66402765  0.76263345  0.53532455    -0.48000
O192        O  0.68982898  0.77863438  0.58652448    -0.54300
C193        C  0.66149344  0.76876370  0.66784636     0.85700
O194        O  0.63995000  0.79134455  0.58618196    -0.56200
O195        O  0.65981593  0.78398183  0.50107329    -0.59500
In196      In  0.66320487  0.69885587  0.08072192     1.36900
C197        C  0.69310009  0.69533919  0.06371663     0.78200
O198        O  0.65784123  0.69791693  0.99971500    -0.60300
O199        O  0.65866996  0.71966619  0.03389097    -0.51200
C200        C  0.64418181  0.67542023  0.09526118     0.70800
O201        O  0.65854476  0.67414862  0.09812759    -0.46100
C202        C  0.66095074  0.71267325  0.16870013     0.75500
O203        O  0.68364400  0.68445680  0.05967165    -0.57900
O204        O  0.65370030  0.71717972  0.13121626    -0.48000
O205        O  0.68716297  0.70783455  0.07731563    -0.54300
C206        C  0.65705575  0.71225592  0.99423311     0.85700
O207        O  0.63955141  0.68869720  0.08423366    -0.56200
O208        O  0.66900132  0.70089972  0.16098427    -0.59500
In209      In  0.33243221  0.77882251  0.07495301     1.36900
C210        C  0.30324362  0.78510041  0.05456245     0.78200
O211        O  0.33982847  0.77539765  0.99647782    -0.60300
O212        O  0.33058405  0.75634573  0.03479406    -0.51200
C213        C  0.35189499  0.80220894  0.08842885     0.70800
O214        O  0.33761805  0.80332473  0.09527092    -0.46100
C215        C  0.33642538  0.76511132  0.16133457     0.75500
O216        O  0.31422229  0.79328343  0.03939292    -0.57900
O217        O  0.34428900  0.76183847  0.12360748    -0.48000
O218        O  0.30735353  0.77434978  0.08250957    -0.54300
C219        C  0.33541626  0.76162701  0.99447850     0.85700
O220        O  0.35608308  0.78916174  0.07313973    -0.56200
O221        O  0.32662958  0.77553114  0.15448876    -0.59500
In222      In  0.33072536  0.69548174  0.57288933     1.36900
C223        C  0.30140494  0.68886883  0.55601979     0.78200
O224        O  0.32686141  0.69512813  0.65485975    -0.60300
O225        O  0.33394889  0.71601939  0.62241624    -0.51200
C226        C  0.35278881  0.67480310  0.58625905     0.70800
O227        O  0.33874658  0.67148614  0.58594713    -0.46100
C228        C  0.33651493  0.70888592  0.48674162     0.75500
O229        O  0.31186418  0.67889065  0.55510520    -0.57900
O230        O  0.33919282  0.71541609  0.52737444    -0.48000
O231        O  0.30595855  0.70217397  0.56730231    -0.54300
C232        C  0.33051622  0.70897456  0.66148098     0.85700
O233        O  0.35557545  0.68875476  0.57789017    -0.56200
O234        O  0.33171528  0.69530293  0.49038340    -0.59500
In235      In  0.16287875  0.78162832  0.92055558     1.36900
C236        C  0.19290299  0.78505141  0.93796175     0.78200
O237        O  0.15712903  0.78084634  0.00127846    -0.60300
O238        O  0.15679100  0.76001616  0.96170646    -0.51200
C239        C  0.14238367  0.80418376  0.91291084     0.70800
O240        O  0.15596663  0.80644952  0.92694721    -0.46100
C241        C  0.16144805  0.77062231  0.82875409     0.75500
O242        O  0.18373945  0.79620844  0.93521719    -0.57900
O243        O  0.15563933  0.76386406  0.86539584    -0.48000
O244        O  0.18676008  0.77222367  0.92949891    -0.54300
C245        C  0.15545981  0.76650116  0.00307574     0.85700
O246        O  0.13919145  0.79033543  0.90401473    -0.56200
O247        O  0.16813725  0.78304039  0.83942533    -0.59500
In248      In  0.16473192  0.69874158  0.41763871     1.36900
C249        C  0.19342686  0.68974008  0.43384216     0.78200
O250        O  0.17218137  0.70566090  0.34167454    -0.60300
O251        O  0.15133136  0.71480658  0.36945853    -0.51200
C252        C  0.14374025  0.67697402  0.40614304     0.70800
O253        O  0.15614860  0.67714862  0.38219857    -0.46100
C254        C  0.16183847  0.71474714  0.50077785     0.75500
O255        O  0.18226821  0.68052719  0.43457780    -0.57900
O256        O  0.16262039  0.72098909  0.45893326    -0.48000
O257        O  0.18985743  0.70330340  0.42263444    -0.54300
C258        C  0.16067875  0.71406893  0.33399611     0.85700
O259        O  0.14221495  0.68781709  0.43662028    -0.56200
O260        O  0.16194290  0.70027956  0.49952603    -0.59500
In261      In  0.32971061  0.19872710  0.43593188     1.36900
C262        C  0.30046890  0.19286048  0.45867759     0.78200
O263        O  0.33995169  0.20223596  0.51184258    -0.60300
O264        O  0.32825206  0.22078508  0.47893037    -0.51200
C265        C  0.34920098  0.17569969  0.41971859     0.70800
O266        O  0.33501091  0.17352622  0.42569876    -0.46100
C267        C  0.33214235  0.21212390  0.34765826     0.75500
O268        O  0.31149997  0.18560480  0.47756359    -0.57900
O269        O  0.33893129  0.21700444  0.38568587    -0.48000
O270        O  0.30446085  0.20231163  0.42599564    -0.54300
C271        C  0.33486714  0.21570051  0.51671217     0.85700
O272        O  0.35338016  0.18950058  0.42357156    -0.56200
O273        O  0.32416942  0.20024573  0.35504565    -0.59500
In274      In  0.32759474  0.28350941  0.93578106     1.36900
C275        C  0.29840879  0.29010028  0.95682426     0.78200
O276        O  0.32389533  0.28216541  0.85369226    -0.60300
O277        O  0.33673172  0.26450422  0.88771818    -0.51200
C278        C  0.34765073  0.30608387  0.91987696     0.70800
O279        O  0.33332748  0.30795642  0.91723112    -0.46100
C280        C  0.33225958  0.26763790  0.01858613     0.75500
O281        O  0.30940745  0.29867470  0.96911348    -0.57900
O282        O  0.32662102  0.26179748  0.98016875    -0.48000
O283        O  0.30233386  0.27866002  0.93121250    -0.54300
C284        C  0.33133040  0.26985969  0.84823995     0.85700
O285        O  0.35158525  0.29272444  0.93264496    -0.56200
O286        O  0.33641277  0.28143383  0.01399336    -0.59500
In287      In  0.15955487  0.20450631  0.59184872     1.36900
C288        C  0.18928397  0.19953659  0.57164131     0.78200
O289        O  0.15641031  0.20484077  0.50977833    -0.60300
O290        O  0.15465863  0.22594414  0.54856889    -0.51200
C291        C  0.13925115  0.18208952  0.60743996     0.70800
O292        O  0.15296646  0.18128539  0.62154082    -0.46100
C293        C  0.15700308  0.21903323  0.67850771     0.75500
O294        O  0.17919502  0.18917965  0.56868560    -0.57900
O295        O  0.14946026  0.22286682  0.64086994    -0.48000
O296        O  0.18404430  0.21217030  0.58687443    -0.54300
C297        C  0.15482650  0.21922304  0.50725354     0.85700
O298        O  0.13599246  0.19408309  0.58383636    -0.56200
O299        O  0.16580869  0.20776622  0.67143484    -0.59500
In300      In  0.15804018  0.28963502  0.09241533     1.36900
C301        C  0.18822857  0.29289201  0.07694260     0.78200
O302        O  0.16185283  0.28934922  0.17432747    -0.60300
O303        O  0.15065002  0.27035458  0.14198709    -0.51200
C304        C  0.13691994  0.31155241  0.10279202     0.70800
O305        O  0.15100305  0.31446557  0.09737843    -0.46100
C306        C  0.15243244  0.27618398  0.00565080     0.75500
O307        O  0.17929246  0.30421178  0.08145064    -0.57900
O308        O  0.15313872  0.26895673  0.04574914    -0.48000
O309        O  0.18173137  0.28013479  0.08297353    -0.54300
C310        C  0.15564970  0.27643118  0.18100594     0.85700
O311        O  0.13368005  0.29744024  0.10172228    -0.56200
O312        O  0.15352856  0.29053487  0.01079029    -0.59500
In313      In  0.54038099  0.57680258  0.19741857     1.36900
C314        C  0.54316793  0.54663113  0.21165302     0.78200
O315        O  0.54367243  0.57782552  0.27910100    -0.60300
O316        O  0.52274957  0.58626097  0.24996814    -0.51200
C317        C  0.56323153  0.59626840  0.17852421     0.70800
O318        O  0.56449234  0.58192104  0.17436024    -0.46100
C319        C  0.52451216  0.57859515  0.11383754     0.75500
O320        O  0.55448617  0.55560849  0.20946215    -0.57900
O321        O  0.51916437  0.58310121  0.15465864    -0.48000
O322        O  0.53043810  0.55312660  0.20482347    -0.54300
C323        C  0.53052035  0.58317339  0.28785223     0.85700
O324        O  0.55023060  0.60070415  0.19329725    -0.56200
O325        O  0.53792835  0.57331830  0.11622103    -0.59500
In326      In  0.45787428  0.57833835  0.69594892     1.36900
C327        C  0.45203642  0.54864596  0.71080047     0.78200
O328        O  0.46339739  0.57149339  0.61795995    -0.60300
O329        O  0.47555706  0.59009148  0.64917482    -0.51200
C330        C  0.43553834  0.59835658  0.67761433     0.70800
O331        O  0.43409565  0.58408068  0.67132342    -0.46100
C332        C  0.47081131  0.58289620  0.78359720     0.75500
O333        O  0.44173201  0.55881052  0.71285379    -0.57900
O334        O  0.47848131  0.58103657  0.74458106    -0.48000
O335        O  0.46515246  0.55377917  0.70018751    -0.54300
C336        C  0.47354324  0.58162717  0.61198949     0.85700
O337        O  0.44835651  0.60228397  0.69489593    -0.56200
O338        O  0.45651860  0.58325193  0.77699913    -0.59500
In339      In  0.53592470  0.40459631  0.31919462     1.36900
C340        C  0.54184203  0.43428595  0.30511785     0.78200
O341        O  0.53574005  0.39774448  0.23906443    -0.60300
O342        O  0.51463242  0.40324735  0.27275391    -0.51200
C343        C  0.55836952  0.38464191  0.33581927     0.70800
O344        O  0.56072879  0.39890392  0.33326417    -0.46100
C345        C  0.52148036  0.40150252  0.40558510     0.75500
O346        O  0.55170544  0.42393404  0.29753785    -0.57900
O347        O  0.51858858  0.39329410  0.36838920    -0.48000
O348        O  0.52915613  0.42936641  0.32090036    -0.54300
C349        C  0.52151245  0.39950070  0.23368418     0.85700
O350        O  0.54466878  0.38064202  0.32879673    -0.56200
O351        O  0.53192765  0.41124893  0.39820149    -0.59500
In352      In  0.45111389  0.40613430  0.81958857     1.36900
C353        C  0.44771833  0.43632694  0.80585168     0.78200
O354        O  0.45364543  0.41084898  0.90039375    -0.60300
O355        O  0.47046511  0.39706618  0.86624045    -0.51200
C356        C  0.42826799  0.38610729  0.83463688     0.70800
O357        O  0.42686992  0.40034793  0.84143822    -0.46100
C358        C  0.46418298  0.40113761  0.73195891     0.75500
O359        O  0.43661336  0.42704522  0.80441001    -0.57900
O360        O  0.47112337  0.39911386  0.77214495    -0.48000
O361        O  0.46037102  0.43011976  0.81603082    -0.54300
C362        C  0.46580471  0.40323207  0.90563612     0.85700
O363        O  0.44123571  0.38216674  0.81833075    -0.56200
O364        O  0.45027729  0.40485733  0.73676686    -0.59500
In365      In  0.53792675  0.90456541  0.68970393     1.36900
C366        C  0.54291486  0.93438170  0.70652768     0.78200
O367        O  0.53489724  0.91025477  0.60923810    -0.60300
O368        O  0.51951646  0.89449181  0.64148595    -0.51200
C369        C  0.56031100  0.88400658  0.67607896     0.70800
O370        O  0.56188290  0.89811875  0.66725579    -0.46100
C371        C  0.52423729  0.90000495  0.77661769     0.75500
O372        O  0.55349916  0.92450964  0.70667664    -0.57900
O373        O  0.51700316  0.90022953  0.73640193    -0.48000
O374        O  0.52996563  0.92891622  0.69576473    -0.54300
C375        C  0.52351102  0.90155766  0.60302725     0.85700
O376        O  0.54734392  0.88047225  0.69330518    -0.56200
O377        O  0.53856301  0.90138458  0.77189396    -0.59500
In378      In  0.45310001  0.90421759  0.19131677     1.36900
C379        C  0.44759920  0.93395905  0.20817767     0.78200
O380        O  0.45185371  0.89832043  0.27228304    -0.60300
O381        O  0.47369154  0.90051697  0.23935623    -0.51200
C382        C  0.43141246  0.88336379  0.17356284     0.70800
O383        O  0.42892118  0.89762195  0.17330274    -0.46100
C384        C  0.46775863  0.90218066  0.10473198     0.75500
O385        O  0.43738530  0.92379023  0.21201750    -0.57900
O386        O  0.47307476  0.89684967  0.14434902    -0.48000
O387        O  0.46039143  0.92885638  0.19409643    -0.54300
C388        C  0.46617664  0.89818039  0.27836432     0.85700
O389        O  0.44502977  0.87976428  0.18406959    -0.56200
O390        O  0.45491999  0.90865717  0.10982320    -0.59500
In391      In  0.45269471  0.07528627  0.32816730     1.36900
C392        C  0.44784206  0.04534463  0.31370795     0.78200
O393        O  0.45317560  0.07460174  0.24550219    -0.60300
O394        O  0.47127251  0.08629612  0.28161066    -0.51200
C395        C  0.43037834  0.09574736  0.34370699     0.70800
O396        O  0.42838563  0.08147145  0.34701622    -0.46100
C397        C  0.46712565  0.07640391  0.41454950     0.75500
O398        O  0.43741890  0.05530219  0.31006609    -0.57900
O399        O  0.47392469  0.07846249  0.37401090    -0.48000
O400        O  0.46067488  0.05070958  0.32645129    -0.54300
C401        C  0.46579856  0.08152013  0.24139499     0.85700
O402        O  0.44373379  0.09956364  0.33067736    -0.56200
O403        O  0.45303401  0.07355553  0.41061248    -0.59500
In404      In  0.53619189  0.07481479  0.82853439     1.36900
C405        C  0.54403468  0.04568669  0.81224184     0.78200
O406        O  0.53367406  0.07159405  0.91010727    -0.60300
O407        O  0.51691136  0.08486495  0.87331459    -0.51200
C408        C  0.55878299  0.09532220  0.83952005     0.70800
O409        O  0.56061904  0.08103676  0.84411745    -0.46100
C410        C  0.52039779  0.07777857  0.74535702     0.75500
O411        O  0.55149336  0.05684469  0.79499126    -0.57900
O412        O  0.51484569  0.07178614  0.78364494    -0.48000
O413        O  0.53308440  0.04952513  0.84005488    -0.54300
C414        C  0.52153147  0.07939586  0.91365379     0.85700
O415        O  0.54517566  0.09897493  0.82916578    -0.56200
O416        O  0.53380288  0.08290715  0.75044680    -0.59500
C417        C  0.48942162  0.08397327  0.00881572    -0.04900
C418        C  0.49781961  0.08489008  0.05310920     0.09300
C419        C  0.51397848  0.08472543  0.05146377    -0.02300
C420        C  0.52172607  0.08327500  0.00591567    -0.00500
C421        C  0.51334409  0.08183641  0.96144274    -0.04200
C422        C  0.49710671  0.08237556  0.96318192     0.02900
C423        C  0.48962283  0.08434832  0.10173698     0.09700
C424        C  0.52263845  0.08560484  0.09696452     0.35600
C425        C  0.48817855  0.08041066  0.91852757     0.39000
C426        C  0.48437119  0.07010843  0.11974612    -0.04500
C427        C  0.47647504  0.06932025  0.16505287     0.02600
C428        C  0.47400512  0.08275707  0.19341732    -0.04100
C429        C  0.47973945  0.09696344  0.17622372    -0.00300
C430        C  0.48728868  0.09779080  0.13003130    -0.02900
C431        C  0.48740435  0.05617611  0.09189084     0.36300
C432        C  0.47776954  0.11073710  0.20570179     0.40000
C433        C  0.47158609  0.05447827  0.18361864     0.39100
C434        C  0.49257856  0.11245412  0.11135933     0.36000
C435        C  0.47279401  0.08420297  0.01053848     0.36700
C436        C  0.53836576  0.08338603  0.00509484     0.39900
N437        N  0.46777646  0.04263102  0.19848487    -0.38100
N438        N  0.48990547  0.04509817  0.06962019    -0.39700
N439        N  0.47632253  0.12174868  0.22925242    -0.37500
N440        N  0.49677448  0.12415717  0.09637759    -0.39800
N441        N  0.52956158  0.08629560  0.13323904    -0.39600
N442        N  0.55163581  0.08344455  0.00441870    -0.37200
N443        N  0.48102012  0.07877977  0.88302253    -0.38300
N444        N  0.45953333  0.08434380  0.01208481    -0.40000
C445        C  0.49728535  0.07179389  0.51475883    -0.04900
C446        C  0.48981149  0.07851421  0.55559544     0.09300
C447        C  0.47504815  0.08483302  0.55010123    -0.02300
C448        C  0.46769219  0.08434062  0.50388968    -0.00500
C449        C  0.47500636  0.07726901  0.46299707    -0.04200
C450        C  0.48983868  0.07095439  0.46877124     0.02900
C451        C  0.49736707  0.07853454  0.60491326     0.09700
C452        C  0.46745626  0.09182675  0.59222316     0.35600
C453        C  0.49718789  0.06290076  0.42820123     0.39000
C454        C  0.50582812  0.09142242  0.62066937    -0.04500
C455        C  0.51314253  0.09132604  0.66696829     0.02600
C456        C  0.51206563  0.07826854  0.69771456    -0.04100
C457        C  0.50351076  0.06536111  0.68175130    -0.00300
C458        C  0.49618974  0.06553082  0.63550494    -0.02900
C459        C  0.50711542  0.10470629  0.58879467     0.36300
C460        C  0.50276850  0.05159110  0.71171631     0.40000
C461        C  0.52149256  0.10481387  0.68329089     0.39100
C462        C  0.48763375  0.05220986  0.61881168     0.36000
C463        C  0.51267131  0.06572443  0.52028886     0.36700
C464        C  0.45275458  0.09146415  0.49840874     0.39900
N465        N  0.52815597  0.11555842  0.69643043    -0.38100
N466        N  0.50812412  0.11525945  0.56316465    -0.39700
N467        N  0.50219144  0.04059492  0.73551512    -0.37500
N468        N  0.48085161  0.04158742  0.60529021    -0.39800
N469        N  0.46145907  0.09739760  0.62592929    -0.39600
N470        N  0.44084542  0.09716459  0.49418226    -0.37200
N471        N  0.50301227  0.05637226  0.39598574    -0.38300
N472        N  0.52497427  0.06096855  0.52480436    -0.40000
C473        C  0.45211616  0.00171150  0.31405111    -0.04900
C474        C  0.44333734  0.99758091  0.27249381     0.09300
C475        C  0.43509985  0.00893185  0.24682030    -0.02300
C476        C  0.43592576  0.02443711  0.26180529    -0.00500
C477        C  0.44542555  0.02878370  0.30184119    -0.04200
C478        C  0.45325217  0.01725225  0.32854675     0.02900
C479        C  0.44352500  0.98138113  0.25391977     0.09700
C480        C  0.42614839  0.00464883  0.20390735     0.35600
C481        C  0.46225055  0.02127773  0.37159994     0.39000
C482        C  0.43400211  0.97014820  0.27539761    -0.04500
C483        C  0.43479121  0.95473783  0.25918443     0.02600
C484        C  0.44514495  0.95046415  0.22106745    -0.04100
C485        C  0.45409690  0.96199714  0.19800962    -0.00300
C486        C  0.45347550  0.97729243  0.21501706    -0.02900
C487        C  0.42369750  0.97442355  0.31521828     0.36300
C488        C  0.46383979  0.95829427  0.15616369     0.40000
C489        C  0.42532115  0.94329346  0.28332518     0.39100
C490        C  0.46346420  0.98881766  0.19350870     0.36000
C491        C  0.46021247  0.98992517  0.34127275     0.36700
C492        C  0.42739248  0.03591119  0.23458711     0.39900
N493        N  0.41770820  0.93420778  0.30256415    -0.38100
N494        N  0.41553853  0.97783296  0.34714915    -0.39700
N495        N  0.47161186  0.95543719  0.12271222    -0.37500
N496        N  0.47148403  0.99801629  0.17669368    -0.39800
N497        N  0.41912829  0.00118591  0.16947685    -0.39600
N498        N  0.42049557  0.04503595  0.21305368    -0.37200
N499        N  0.46940306  0.02447620  0.40601743    -0.38300
N500        N  0.46658676  0.98044776  0.36289590    -0.40000
C501        C  0.55912741  0.97103243  0.76518817    -0.04900
C502        C  0.54805085  0.98195869  0.75126586     0.09300
C503        C  0.53582504  0.97750779  0.72043825    -0.02300
C504        C  0.53455435  0.96219235  0.70397906    -0.00500
C505        C  0.54525467  0.95094093  0.71960799    -0.04200
C506        C  0.55768433  0.95556925  0.75001260     0.02900
C507        C  0.54908630  0.99823611  0.76900215     0.09700
C508        C  0.52441454  0.98875822  0.70593559     0.35600
C509        C  0.56880826  0.94446488  0.76741245     0.39000
C510        C  0.55299059  0.01002798  0.73569475    -0.04500
C511        C  0.55193064  0.02554554  0.75026793     0.02600
C512        C  0.54723300  0.02940042  0.79883739    -0.04100
C513        C  0.54431708  0.01750473  0.83307620    -0.00300
C514        C  0.54506266  0.00200068  0.81803034    -0.02900
C515        C  0.55748635  0.00615473  0.68560163     0.36300
C516        C  0.54054645  0.02115897  0.88394002     0.40000
C517        C  0.55471615  0.03744897  0.71398063     0.39100
C518        C  0.54113415  0.98992334  0.85257460     0.36000
C519        C  0.57200295  0.97573524  0.79546901     0.36700
C520        C  0.52228687  0.95824406  0.67017373     0.39900
N521        N  0.55688272  0.04690747  0.68488420    -0.38100
N522        N  0.56094073  0.00303769  0.64557548    -0.39700
N523        N  0.53755979  0.02408412  0.92450424    -0.37500
N524        N  0.53801104  0.98030759  0.88020693    -0.39800
N525        N  0.51539601  0.99778349  0.69429657    -0.39600
N526        N  0.51248647  0.95518533  0.64318695    -0.37200
N527        N  0.57770656  0.93566105  0.78149094    -0.38300
N528        N  0.58225864  0.97947773  0.81967441    -0.40000
C529        C  0.49942112  0.88452785  0.49840803    -0.04900
C530        C  0.49870707  0.89692331  0.46526493     0.09300
C531        C  0.50670231  0.91059536  0.47596253    -0.02300
C532        C  0.51491919  0.91212549  0.52051673    -0.00500
C533        C  0.51538797  0.89982595  0.55472149    -0.04200
C534        C  0.50783774  0.88587377  0.54264544     0.02900
C535        C  0.48968245  0.89562475  0.41848375     0.09700
C536        C  0.50647197  0.92310163  0.44071165     0.35600
C537        C  0.50911861  0.87262465  0.57467503     0.39000
C538        C  0.47445729  0.90101621  0.41663128    -0.04500
C539        C  0.46658462  0.90158305  0.37121233     0.02600
C540        C  0.47368944  0.89610178  0.32742475    -0.04100
C541        C  0.48854404  0.88956723  0.33043955    -0.00300
C542        C  0.49662242  0.88971566  0.37546972    -0.02900
C543        C  0.46699570  0.90621665  0.46156217     0.36300
C544        C  0.49548171  0.88237799  0.28752440     0.40000
C545        C  0.45151244  0.90859290  0.36963437     0.39100
C546        C  0.51227545  0.88414044  0.37747591     0.36000
C547        C  0.49150705  0.87033448  0.48671127     0.36700
C548        C  0.52250870  0.92657631  0.53123644     0.39900
N549        N  0.43952219  0.91426544  0.36864889    -0.38100
N550        N  0.46100586  0.91025063  0.49746516    -0.39700
N551        N  0.50096038  0.87653483  0.25337825    -0.37500
N552        N  0.52480014  0.87980399  0.37927799    -0.39800
N553        N  0.50629547  0.93299826  0.41233583    -0.39600
N554        N  0.52854936  0.93813241  0.53947741    -0.37200
N555        N  0.51019094  0.86202539  0.60007626    -0.38300
N556        N  0.48519611  0.85901445  0.47731543    -0.40000
C557        C  0.51391682  0.90715239  0.91172739    -0.04900
C558        C  0.50063557  0.89807756  0.91720149     0.09300
C559        C  0.49552372  0.88899536  0.87733805    -0.02300
C560        C  0.50339884  0.88932946  0.83171693    -0.00500
C561        C  0.51647096  0.89879837  0.82559166    -0.04200
C562        C  0.52175268  0.90761699  0.86614960     0.02900
C563        C  0.49172505  0.89868760  0.96456117     0.09700
C564        C  0.48208286  0.87936034  0.88326244     0.35600
C565        C  0.53481224  0.91780813  0.86065879     0.39000
C566        C  0.48153983  0.91095820  0.97353450    -0.04500
C567        C  0.47368381  0.91211379  0.01899898     0.02600
C568        C  0.47592331  0.90091143  0.05620607    -0.04100
C569        C  0.48609043  0.88851058  0.04669589    -0.00300
C570        C  0.49398302  0.88748638  0.00121948    -0.02900
C571        C  0.47939191  0.92260960  0.93602051     0.36300
C572        C  0.48827906  0.87653271  0.08309447     0.40000
C573        C  0.46370538  0.92518596  0.02759021     0.39100
C574        C  0.50466284  0.87501452  0.99229864     0.36000
C575        C  0.51938376  0.91617956  0.95315654     0.36700
C576        C  0.49818720  0.87967099  0.79144394     0.39900
N577        N  0.45574391  0.93563092  0.03414697    -0.38100
N578        N  0.47776449  0.93191834  0.90613597    -0.39700
N579        N  0.49001743  0.86699262  0.11216312    -0.37500
N580        N  0.51321168  0.86508415  0.98520763    -0.39800
N581        N  0.47139585  0.87162056  0.88794857    -0.39600
N582        N  0.49406991  0.87195711  0.75926620    -0.37200
N583        N  0.54519219  0.92597892  0.85638487    -0.38300
N584        N  0.52367795  0.92333603  0.98638871    -0.40000
C585        C  0.51323947  0.40251455  0.09587444    -0.04900
C586        C  0.49767641  0.39821601  0.09398940     0.09300
C587        C  0.49017538  0.39332810  0.13729828    -0.02300
C588        C  0.49801903  0.39334680  0.18277678    -0.00500
C589        C  0.51358193  0.39801965  0.18514580    -0.04200
C590        C  0.52124925  0.40218121  0.14095557     0.02900
C591        C  0.48914148  0.39917728  0.04625889     0.09700
C592        C  0.47433846  0.38827495  0.13492357     0.35600
C593        C  0.53728495  0.40660072  0.14150883     0.39000
C594        C  0.49127369  0.38787833  0.00959687    -0.04500
C595        C  0.48384451  0.38919256  0.96357594     0.02600
C596        C  0.47390458  0.40177214  0.95410204    -0.04100
C597        C  0.47175584  0.41303119  0.99152954    -0.00300
C598        C  0.47945255  0.41177452  0.03702141    -0.02900
C599        C  0.50125697  0.37491262  0.01940566     0.36300
C600        C  0.46199503  0.42626849  0.98327070     0.40000
C601        C  0.48644327  0.37740846  0.92656739     0.39100
C602        C  0.47773173  0.42371448  0.07408453     0.36000
C603        C  0.52090019  0.40767399  0.05132389     0.36700
C604        C  0.49005057  0.38822155  0.22676538     0.39900
N605        N  0.48866927  0.36798848  0.89721099    -0.38100
N606        N  0.50927214  0.36464198  0.02748843    -0.39700
N607        N  0.45417297  0.43680288  0.97683973    -0.37500
N608        N  0.47638935  0.43328028  0.10348838    -0.39800
N609        N  0.46171942  0.38421344  0.13302647    -0.39600
N610        N  0.48359171  0.38410828  0.26164210    -0.37200
N611        N  0.55010830  0.41000653  0.14156481    -0.38300
N612        N  0.52694173  0.41179771  0.01569519    -0.40000
C613        C  0.51174131  0.40453871  0.54314826    -0.04900
C614        C  0.49677177  0.39845526  0.54443825     0.09300
C615        C  0.49017137  0.39264179  0.50088912    -0.02300
C616        C  0.49825696  0.39339049  0.45577144    -0.00500
C617        C  0.51315334  0.39998525  0.45376384    -0.04200
C618        C  0.51990364  0.40535459  0.49819596     0.02900
C619        C  0.48779854  0.39860749  0.59164643     0.09700
C620        C  0.47497679  0.38587415  0.50263394     0.35600
C621        C  0.53534252  0.41157456  0.49838227     0.39000
C622        C  0.47725379  0.41054260  0.60111257    -0.04500
C623        C  0.46936976  0.41121731  0.64658281     0.02600
C624        C  0.47194220  0.39990916  0.68306743    -0.04100
C625        C  0.48247422  0.38790970  0.67330248    -0.00300
C626        C  0.49022547  0.38718675  0.62754333    -0.02900
C627        C  0.47473442  0.42231858  0.56426209     0.36300
C628        C  0.48529340  0.37621142  0.71010951     0.40000
C629        C  0.45932582  0.42413389  0.65668689     0.39100
C630        C  0.50070565  0.37465561  0.61714684     0.36000
C631        C  0.51876316  0.40996267  0.58841593     0.36700
C632        C  0.49087114  0.38771491  0.41146071     0.39900
N633        N  0.45142757  0.43452977  0.66454099    -0.38100
N634        N  0.47267881  0.43171071  0.53490538    -0.39700
N635        N  0.48760658  0.36691382  0.73957514    -0.37500
N636        N  0.50903522  0.36464774  0.60866115    -0.39800
N637        N  0.46287405  0.38043787  0.50395750    -0.39600
N638        N  0.48491804  0.38313342  0.37629845    -0.37200
N639        N  0.54763522  0.41658899  0.49864820    -0.38300
N640        N  0.52439717  0.41418554  0.62457458    -0.40000
C641        C  0.45613044  0.47936923  0.80303871    -0.04900
C642        C  0.44609852  0.48438186  0.76576847     0.09300
C643        C  0.43568238  0.47393528  0.74449494    -0.02300
C644        C  0.43564953  0.45837557  0.75913502    -0.00500
C645        C  0.44629565  0.45307656  0.79473266    -0.04200
C646        C  0.45628615  0.46380977  0.81741958     0.02900
C647        C  0.44665160  0.50072169  0.74873820     0.09700
C648        C  0.42516491  0.47922602  0.70684695     0.35600
C649        C  0.46658839  0.45898949  0.85633836     0.39000
C650        C  0.45699089  0.50509957  0.71128329    -0.04500
C651        C  0.45829469  0.52065432  0.69746718     0.02600
C652        C  0.44924953  0.53203180  0.72116386    -0.04100
C653        C  0.43821702  0.52741689  0.75669812    -0.00300
C654        C  0.43711025  0.51185443  0.77082544    -0.02900
C655        C  0.46640801  0.49355654  0.68720434     0.36300
C656        C  0.42814457  0.53859741  0.77971328     0.40000
C657        C  0.46867677  0.52481187  0.65775066     0.39100
C658        C  0.42639884  0.50726257  0.80905467     0.36000
C659        C  0.46633280  0.49031065  0.82654015     0.36700
C660        C  0.42499807  0.44781475  0.73594002     0.39900
N661        N  0.47690969  0.52813352  0.62596696    -0.38100
N662        N  0.47392345  0.48438003  0.66786978    -0.39700
N663        N  0.41994119  0.54741721  0.79782999    -0.37500
N664        N  0.41792010  0.50351818  0.83964406    -0.39800
N665        N  0.41680477  0.48351352  0.67682710    -0.39600
N666        N  0.41649470  0.43941265  0.71734120    -0.37200
N667        N  0.47481722  0.45515290  0.88735526    -0.38300
N668        N  0.47441070  0.49908674  0.84530544    -0.40000
C669        C  0.55701258  0.50902667  0.26861561    -0.04900
C670        C  0.54584450  0.49863227  0.25157918     0.09300
C671        C  0.53439051  0.50369756  0.21887278    -0.02300
C672        C  0.53368434  0.51927502  0.20485734    -0.00500
C673        C  0.54460161  0.52992463  0.22310106    -0.04200
C674        C  0.55652620  0.52456979  0.25416207     0.02900
C675        C  0.54611055  0.48225178  0.26801024     0.09700
C676        C  0.52337747  0.49277121  0.19943700     0.35600
C677        C  0.56812977  0.53502303  0.27267993     0.39000
C678        C  0.53846617  0.47788538  0.31164712    -0.04500
C679        C  0.53762816  0.46225948  0.32500425     0.02600
C680        C  0.54456739  0.45087979  0.29490388    -0.04100
C681        C  0.55328063  0.45548619  0.25331282    -0.00300
C682        C  0.55383232  0.47109419  0.23959029    -0.02900
C683        C  0.53147372  0.48953357  0.34275452     0.36300
C684        C  0.56148969  0.44424239  0.22385656     0.40000
C685        C  0.53004524  0.45798177  0.37065802     0.39100
C686        C  0.56217098  0.47572455  0.19572393     0.36000
C687        C  0.56896814  0.50366791  0.30142261     0.36700
C688        C  0.52190543  0.52416133  0.17061495     0.39900
N689        N  0.52408886  0.45454133  0.40718829    -0.38100
N690        N  0.52600639  0.49886748  0.36765699    -0.39700
N691        N  0.56824059  0.43535290  0.20060088    -0.37500
N692        N  0.56879234  0.47947134  0.16073206    -0.39800
N693        N  0.51468684  0.48398626  0.18380117    -0.39600
N694        N  0.51250855  0.52804638  0.14330873    -0.37200
N695        N  0.57742713  0.54333017  0.28737802    -0.38300
N696        N  0.57848028  0.49934797  0.32759925    -0.40000
C697        C  0.50865498  0.59839658  0.39942356    -0.04900
C698        C  0.50945243  0.58566812  0.43133878     0.09300
C699        C  0.51836239  0.57280432  0.41815644    -0.02300
C700        C  0.52575030  0.57226134  0.37194041    -0.00500
C701        C  0.52429082  0.58466003  0.33860864    -0.04200
C702        C  0.51598353  0.59787497  0.35298230     0.02900
C703        C  0.50008681  0.58529663  0.47749910     0.09700
C704        C  0.51953410  0.55993374  0.45180634     0.35600
C705        C  0.51504861  0.61096356  0.32019151     0.39000
C706        C  0.48485712  0.57990856  0.47585599    -0.04500
C707        C  0.47602167  0.57909270  0.51940786     0.02600
C708        C  0.48253829  0.58327822  0.56539168    -0.04100
C709        C  0.49788850  0.58867254  0.56666476    -0.00300
C710        C  0.50658026  0.58966786  0.52285671    -0.02900
C711        C  0.47844246  0.57481487  0.42924832     0.36300
C712        C  0.50507966  0.59269817  0.61309742     0.40000
C713        C  0.46011266  0.57430922  0.51624104     0.39100
C714        C  0.52240714  0.59476608  0.52452230     0.36000
C715        C  0.50016916  0.61195406  0.41439543     0.36700
C716        C  0.53398377  0.55845848  0.35768511     0.39900
N717        N  0.44741895  0.57053593  0.51342970    -0.38100
N718        N  0.47344792  0.57065406  0.39204294    -0.39700
N719        N  0.51087239  0.59593000  0.65003127    -0.37500
N720        N  0.53505789  0.59874422  0.52596421    -0.39800
N721        N  0.52045477  0.54971843  0.47883166    -0.39600
N722        N  0.54046308  0.54738913  0.34648746    -0.37200
N723        N  0.51431040  0.62141353  0.29403740    -0.38300
N724        N  0.49345115  0.62278351  0.42655711    -0.40000
C725        C  0.49839484  0.59279862  0.01081607    -0.04900
C726        C  0.50073331  0.58138900  0.97466079     0.09300
C727        C  0.51033664  0.56878414  0.98468679    -0.02300
C728        C  0.51785357  0.56772200  0.03048430    -0.00500
C729        C  0.51586722  0.57935743  0.06662085    -0.04200
C730        C  0.50590422  0.59181762  0.05670081     0.02900
C731        C  0.49279596  0.58249548  0.92610807     0.09700
C732        C  0.51236370  0.55683104  0.94784295     0.35600
C733        C  0.50367156  0.60393103  0.09282108     0.39000
C734        C  0.50011550  0.58960457  0.88582653    -0.04500
C735        C  0.49287388  0.59004591  0.83939439     0.02600
C736        C  0.47800561  0.58373134  0.83335105    -0.04100
C737        C  0.47043242  0.57727448  0.87478926    -0.00300
C738        C  0.47794698  0.57641988  0.92062353    -0.02900
C739        C  0.51511384  0.59651163  0.89244599     0.36300
C740        C  0.45506875  0.57103349  0.87051236     0.40000
C741        C  0.50071645  0.59726351  0.79830120     0.39100
C742        C  0.47053580  0.56900779  0.96221429     0.36000
C743        C  0.48827708  0.60559985  0.00038594     0.36700
C744        C  0.52724580  0.55435313  0.04074730     0.39900
N745        N  0.50707176  0.60301438  0.76570132    -0.38100
N746        N  0.52703160  0.60208781  0.89799862    -0.39700
N747        N  0.44276684  0.56614648  0.86756281    -0.37500
N748        N  0.46470507  0.56304700  0.99542207    -0.39800
N749        N  0.51396294  0.54728508  0.91850151    -0.39600
N750        N  0.53472804  0.54369781  0.04900859    -0.37200
N751        N  0.50182448  0.61362696  0.12150112    -0.38300
N752        N  0.48016947  0.61574771  0.99170257    -0.40000
C753        C  0.14244307  0.25013134  0.28591692    -0.04900
C754        C  0.15359052  0.25315757  0.32220490     0.09300
C755        C  0.16490530  0.26438153  0.31333853    -0.02300
C756        C  0.16554567  0.27205539  0.26757858    -0.00500
C757        C  0.15455998  0.26885533  0.23043009    -0.04200
C758        C  0.14274155  0.25809093  0.24058322     0.02900
C759        C  0.15362021  0.24428641  0.36955171     0.09700
C760        C  0.17595862  0.26800124  0.35151552     0.35600
C761        C  0.13055560  0.25544876  0.20522665     0.39000
C762        C  0.16331121  0.23143281  0.37481482    -0.04500
C763        C  0.16352582  0.22312985  0.41944730     0.02600
C764        C  0.15400466  0.22761980  0.45942092    -0.04100
C765        C  0.14431391  0.24054343  0.45398698    -0.00300
C766        C  0.14411098  0.24879554  0.40919139    -0.02900
C767        C  0.17321681  0.22685852  0.33428000     0.36300
C768        C  0.13429222  0.24522298  0.49406198     0.40000
C769        C  0.17410563  0.21037396  0.42473185     0.39100
C770        C  0.13416464  0.26202199  0.40381853     0.36000
C771        C  0.13069785  0.23870124  0.29531079     0.36700
C772        C  0.17790032  0.28285865  0.25855849     0.39900
N773        N  0.18255185  0.20022117  0.42903822    -0.38100
N774        N  0.18115044  0.22322919  0.30201185    -0.39700
N775        N  0.12629934  0.24896552  0.52604781    -0.37500
N776        N  0.12622226  0.27256708  0.39942400    -0.39800
N777        N  0.18474145  0.27095632  0.38200317    -0.39600
N778        N  0.18774981  0.29147106  0.25123561    -0.37200
N779        N  0.12078405  0.25339249  0.17717857    -0.38300
N780        N  0.12136040  0.22956505  0.30296996    -0.40000
C781        C  0.14075818  0.24204033  0.78719764    -0.04900
C782        C  0.15371181  0.24336502  0.81785993     0.09300
C783        C  0.16764006  0.23643219  0.80354871    -0.02300
C784        C  0.16871252  0.22840578  0.75835837    -0.00500
C785        C  0.15577451  0.22718842  0.72697162    -0.04200
C786        C  0.14172133  0.23393475  0.74211340     0.02900
C787        C  0.15266846  0.25206642  0.86550856     0.09700
C788        C  0.18091783  0.23764606  0.83544971     0.35600
C789        C  0.12804615  0.23219183  0.71229864     0.39000
C790        C  0.14662970  0.24493863  0.90788009    -0.04500
C791        C  0.14585027  0.25300380  0.95305387     0.02600
C792        C  0.15138885  0.26831009  0.95653958    -0.04100
C793        C  0.15717250  0.27550781  0.91332727    -0.00300
C794        C  0.15780423  0.26738373  0.86821719    -0.02900
C795        C  0.14154109  0.22909618  0.90507743     0.36300
C796        C  0.16312051  0.29106890  0.91505410     0.40000
C797        C  0.13924653  0.24541395  0.99568668     0.39100
C798        C  0.16411694  0.27465319  0.82455821     0.36000
C799        C  0.12641181  0.24909156  0.80225552     0.36700
C800        C  0.18333436  0.22181936  0.74384863     0.39900
N801        N  0.13400752  0.23931576  0.02966214    -0.38100
N802        N  0.13754727  0.21644677  0.90269552    -0.39700
N803        N  0.16787823  0.30347067  0.91627794    -0.37500
N804        N  0.16923123  0.28040168  0.78977739    -0.39800
N805        N  0.19150303  0.23864352  0.86089517    -0.39600
N806        N  0.19499281  0.21654675  0.73234913    -0.37200
N807        N  0.11709452  0.23080767  0.68869780    -0.38300
N808        N  0.11500499  0.25473183  0.81452559    -0.40000
C809        C  0.36620730  0.34146802  0.86089080    -0.04900
C810        C  0.38086471  0.34133170  0.88261650     0.09300
C811        C  0.38462666  0.32974162  0.91664980    -0.02300
C812        C  0.37369951  0.31852228  0.92988317    -0.00500
C813        C  0.35897003  0.31845433  0.90783855    -0.04200
C814        C  0.35536608  0.32999672  0.87282309     0.02900
C815        C  0.39255046  0.35323224  0.86907339     0.09700
C816        C  0.39994241  0.32920423  0.93733166     0.35600
C817        C  0.34080158  0.32981073  0.84708391     0.39000
C818        C  0.39501941  0.36600624  0.90012177    -0.04500
C819        C  0.40654334  0.37682916  0.88863779     0.02600
C820        C  0.41578975  0.37490588  0.84596512    -0.04100
C821        C  0.41322072  0.36207538  0.81487341    -0.00300
C822        C  0.40155154  0.35139369  0.82618055    -0.02900
C823        C  0.38574877  0.36789240  0.94424561     0.36300
C824        C  0.42239824  0.35992614  0.77071001     0.40000
C825        C  0.40928627  0.38955192  0.92214765     0.39100
C826        C  0.39875623  0.33843494  0.79370978     0.36000
C827        C  0.36239223  0.35332987  0.82553244     0.36700
C828        C  0.37768079  0.30726612  0.96700777     0.39900
N829        N  0.41149398  0.39968305  0.94891816    -0.38100
N830        N  0.37835342  0.36934728  0.97945373    -0.39700
N831        N  0.42976161  0.35818456  0.73556637    -0.37500
N832        N  0.39639163  0.32812360  0.76781965    -0.39800
N833        N  0.41219389  0.32872569  0.95351560    -0.39600
N834        N  0.38093814  0.29833620  0.99669234    -0.37200
N835        N  0.32925013  0.32969658  0.82617792    -0.38300
N836        N  0.35935897  0.36277032  0.79724977    -0.40000
C837        C  0.25467698  0.28910713  0.96072343    -0.04900
C838        C  0.25169044  0.29463791  0.00875255     0.09300
C839        C  0.26396385  0.29958030  0.03857981    -0.02300
C840        C  0.27920736  0.29840065  0.02135195    -0.00500
C841        C  0.28228129  0.29271207  0.97329513    -0.04200
C842        C  0.26986120  0.28845386  0.94265153     0.02900
C843        C  0.23562531  0.29473873  0.02858050     0.09700
C844        C  0.26089201  0.30561625  0.08752926     0.35600
C845        C  0.27261843  0.28368458  0.89209089     0.39000
C846        C  0.23050797  0.28264158  0.05885530    -0.04500
C847        C  0.21532874  0.28251976  0.07706543     0.02600
C848        C  0.20483839  0.29420255  0.06334058    -0.04100
C849        C  0.21010724  0.30639517  0.03305971    -0.00300
C850        C  0.22547684  0.30672361  0.01639843    -0.02900
C851        C  0.24079986  0.27003090  0.06996101     0.36300
C852        C  0.19962315  0.31823246  0.01657794     0.40000
C853        C  0.21067093  0.27037651  0.11044783     0.39100
C854        C  0.23083263  0.31923190  0.98561890     0.36000
C855        C  0.24211396  0.28367102  0.93039105     0.36700
C856        C  0.29170055  0.30225128  0.05439503     0.39900
N857        N  0.20699910  0.26069817  0.13715199    -0.38100
N858        N  0.24899900  0.25993319  0.07837731    -0.39700
N859        N  0.19127270  0.32764895  0.00312719    -0.37500
N860        N  0.23515919  0.32916967  0.96099808    -0.39800
N861        N  0.25847899  0.31045874  0.12656838    -0.39600
N862        N  0.30167052  0.30523664  0.08081902    -0.37200
N863        N  0.27481714  0.27998574  0.85165715    -0.38300
N864        N  0.23210410  0.27923302  0.90632475    -0.40000
C865        C  0.40971505  0.13130054  0.39284363    -0.04900
C866        C  0.39454171  0.12853591  0.37730066     0.09300
C867        C  0.39113573  0.11509149  0.35037287    -0.02300
C868        C  0.40276908  0.10427069  0.33998280    -0.00500
C869        C  0.41805142  0.10707568  0.35506648    -0.04200
C870        C  0.42144513  0.12067241  0.38166272     0.02900
C871        C  0.38231835  0.14023419  0.38727652     0.09700
C872        C  0.37575810  0.11271822  0.33162931     0.35600
C873        C  0.43691310  0.12361114  0.39885005     0.39000
C874        C  0.38097186  0.15312295  0.35622848    -0.04500
C875        C  0.37004105  0.16461242  0.36666822     0.02600
C876        C  0.36018071  0.16318066  0.40787141    -0.04100
C877        C  0.36119428  0.15003412  0.43809428    -0.00300
C878        C  0.37240851  0.13870724  0.42826676    -0.02900
C879        C  0.39099135  0.15459218  0.31370632     0.36300
C880        C  0.35108350  0.14843975  0.48033255     0.40000
C881        C  0.36871557  0.17777174  0.33425369     0.39100
C882        C  0.37410344  0.12573504  0.46119746     0.36000
C883        C  0.41325859  0.14528280  0.41970797     0.36700
C884        C  0.39904184  0.09049916  0.31225269     0.39900
N885        N  0.36762992  0.18827384  0.30845271    -0.38100
N886        N  0.39902967  0.15571588  0.27988464    -0.39700
N887        N  0.34297487  0.14719477  0.51394440    -0.37500
N888        N  0.37550708  0.11545536  0.48774927    -0.39800
N889        N  0.36353827  0.11089596  0.31616309    -0.39600
N890        N  0.39608637  0.07948681  0.29025829    -0.37200
N891        N  0.44923738  0.12599488  0.41261587    -0.38300
N892        N  0.41602112  0.15650282  0.44084932    -0.40000
C893        C  0.26522370  0.18915607  0.54195132    -0.04900
C894        C  0.25324048  0.19221596  0.50847117     0.09300
C895        C  0.25672597  0.19414447  0.45794136    -0.02300
C896        C  0.27206099  0.19335597  0.44123699    -0.00500
C897        C  0.28418487  0.19120828  0.47514722    -0.04200
C898        C  0.28062539  0.18888123  0.52562516     0.02900
C899        C  0.23696738  0.19373971  0.52650685     0.09700
C900        C  0.24452015  0.19728067  0.42314698     0.35600
C901        C  0.29278183  0.18702012  0.56153758     0.39000
C902        C  0.23249089  0.20661926  0.55477727    -0.04500
C903        C  0.21715428  0.20824328  0.57098387     0.02600
C904        C  0.20583163  0.19726795  0.55732472    -0.04100
C905        C  0.21044622  0.18440007  0.52847738    -0.00300
C906        C  0.22596244  0.18247516  0.51455422    -0.02900
C907        C  0.24372788  0.21832138  0.56703301     0.36300
C908        C  0.19928955  0.17329956  0.51104367     0.40000
C909        C  0.21326317  0.22126894  0.60210767     0.39100
C910        C  0.23068364  0.16878368  0.48792500     0.36000
C911        C  0.26168088  0.18655126  0.59356306     0.36700
C912        C  0.27529285  0.19452693  0.38884906     0.39900
N913        N  0.21020756  0.23166904  0.62692742    -0.38100
N914        N  0.25270970  0.22759857  0.57701980    -0.39700
N915        N  0.19045517  0.16445867  0.49660016    -0.37500
N916        N  0.23448952  0.15786317  0.46679065    -0.39800
N917        N  0.23476941  0.19973357  0.39541309    -0.39600
N918        N  0.27789532  0.19538180  0.34707049    -0.37200
N919        N  0.30246789  0.18559664  0.59024709    -0.38300
N920        N  0.25881375  0.18454711  0.63473625    -0.40000
C921        C  0.34916972  0.23212701  0.63931238    -0.04900
C922        C  0.33596513  0.23987171  0.65645006     0.09300
C923        C  0.32261974  0.23998226  0.62724698    -0.02300
C924        C  0.32239279  0.23231533  0.58135410    -0.00500
C925        C  0.33559691  0.22448083  0.56397732    -0.04200
C926        C  0.34901371  0.22446880  0.59322969     0.02900
C927        C  0.33581253  0.24752082  0.70610634     0.09700
C928        C  0.30895226  0.24769930  0.64523380     0.35600
C929        C  0.36277472  0.21686270  0.57562598     0.39000
C930        C  0.33769741  0.26356759  0.71014552    -0.04500
C931        C  0.33664564  0.27085618  0.75666478     0.02600
C932        C  0.33333453  0.26216470  0.79945846    -0.04100
C933        C  0.33163014  0.24605592  0.79528726    -0.00300
C934        C  0.33294135  0.23878414  0.74887502    -0.02900
C935        C  0.34049621  0.27258526  0.66613642     0.36300
C936        C  0.32779854  0.23698095  0.83837919     0.40000
C937        C  0.33947960  0.28722848  0.76047548     0.39100
C938        C  0.33090354  0.22230420  0.74480419     0.36000
C939        C  0.36286897  0.23195932  0.66948549     0.36700
C940        C  0.30822714  0.23184282  0.55339472     0.39900
N941        N  0.34187771  0.30027125  0.76324856    -0.38100
N942        N  0.34262199  0.27975129  0.63090381    -0.39700
N943        N  0.32469361  0.22979898  0.87282746    -0.37500
N944        N  0.32928761  0.20915407  0.74150221    -0.39800
N945        N  0.29808432  0.25386682  0.65977218    -0.39600
N946        N  0.29691134  0.23142650  0.53124452    -0.37200
N947        N  0.37380050  0.21084177  0.56168095    -0.38300
N948        N  0.37375116  0.23181314  0.69379175    -0.40000
C949        C  0.34760861  0.24929144  0.13625376    -0.04900
C950        C  0.33407294  0.24300497  0.15665473     0.09300
C951        C  0.32002539  0.24486036  0.13161798    -0.02300
C952        C  0.31951132  0.25287382  0.08649860    -0.00500
C953        C  0.33305472  0.25913760  0.06597379    -0.04200
C954        C  0.34709592  0.25736880  0.09113635     0.02900
C955        C  0.33441719  0.23490916  0.20549045     0.09700
C956        C  0.30602478  0.23876765  0.15296593     0.35600
C957        C  0.36109564  0.26347443  0.06999532     0.39000
C958        C  0.33566860  0.24346475  0.24951863    -0.04500
C959        C  0.33526226  0.23602961  0.29570844     0.02600
C960        C  0.33324003  0.21988625  0.29851797    -0.04100
C961        C  0.33200665  0.21132909  0.25405294    -0.00300
C962        C  0.33281200  0.21880579  0.20789923    -0.02900
C963        C  0.33701553  0.26005457  0.24718891     0.36300
C964        C  0.33007166  0.19478624  0.25524651     0.40000
C965        C  0.33631767  0.24523396  0.34025680     0.39100
C966        C  0.33199870  0.20992638  0.16260910     0.36000
C967        C  0.36205841  0.24745494  0.16189574     0.36700
C968        C  0.30488731  0.25523304  0.06222465     0.39900
N969        N  0.33719082  0.25260125  0.37572332    -0.38100
N970        N  0.33810460  0.27327933  0.24511154    -0.39700
N971        N  0.32843735  0.18159787  0.25583191    -0.37500
N972        N  0.33135793  0.20286396  0.12645910    -0.39800
N973        N  0.29490625  0.23385026  0.17015163    -0.39600
N974        N  0.29322677  0.25717831  0.04296363    -0.37200
N975        N  0.37233221  0.26824976  0.05322149    -0.38300
N976        N  0.37354457  0.24603827  0.18264379    -0.40000
C977        C  0.14698295  0.75842393  0.13893861    -0.04900
C978        C  0.15271911  0.74339856  0.14385162     0.09300
C979        C  0.15789214  0.73535571  0.10187752    -0.02300
C980        C  0.15812001  0.74257181  0.05536010    -0.00500
C981        C  0.15307304  0.75800508  0.05041988    -0.04200
C982        C  0.14698918  0.76566485  0.09244000     0.02900
C983        C  0.15440954  0.73638902  0.19379779     0.09700
C984        C  0.16354479  0.71977027  0.10714840     0.35600
C985        C  0.14071713  0.78103626  0.08833899     0.39000
C986        C  0.14206751  0.72853479  0.21603050    -0.04500
C987        C  0.14397145  0.72152663  0.26248692     0.02600
C988        C  0.15830391  0.72224722  0.28670145    -0.04100
C989        C  0.17052588  0.73043362  0.26476518    -0.00300
C990        C  0.16859581  0.73741212  0.21840890    -0.02900
C991        C  0.12752463  0.72741030  0.19051094     0.36300
C992        C  0.18492439  0.73227823  0.29069378     0.40000
C993        C  0.13131110  0.71315707  0.28450449     0.39100
C994        C  0.18126073  0.74561064  0.19572344     0.36000
C995        C  0.14155803  0.76661429  0.18227041     0.36700
C996        C  0.16435635  0.73420976  0.01352169     0.39900
N997        N  0.12121805  0.70650161  0.30217288    -0.38100
N998        N  0.11592791  0.72649170  0.17008331    -0.39700
N999        N  0.19639648  0.73399159  0.31129153    -0.37500
N1000       N  0.19136528  0.75210962  0.17754165    -0.39800
N1001       N  0.16808236  0.70736854  0.11160556    -0.39600
N1002       N  0.16937286  0.72745907  0.98037518    -0.37200
N1003       N  0.13570861  0.79329890  0.08526928    -0.38300
N1004       N  0.13728147  0.77314006  0.21690625    -0.40000
C1005       C  0.14777317  0.74793812  0.71641278    -0.04900
C1006       C  0.16025978  0.74972740  0.68391979     0.09300
C1007       C  0.17246038  0.75954980  0.69676414    -0.02300
C1008       C  0.17264232  0.76686298  0.74329559    -0.00500
C1009       C  0.16060218  0.76427872  0.77757361    -0.04200
C1010       C  0.14789791  0.75516872  0.76301465     0.02900
C1011       C  0.16073180  0.74085543  0.63665518     0.09700
C1012       C  0.18488011  0.76203624  0.66198718     0.35600
C1013       C  0.13468530  0.75350540  0.79518676     0.39000
C1014       C  0.15350022  0.74661259  0.59417787    -0.04500
C1015       C  0.15383283  0.73814146  0.54975609     0.02600
C1016       C  0.16124687  0.72366873  0.54773938    -0.04100
C1017       C  0.16841644  0.71789832  0.59075793    -0.00300
C1018       C  0.16816223  0.72649237  0.63489778    -0.02900
C1019       C  0.14551767  0.76120443  0.59655858     0.36300
C1020       C  0.17652979  0.70334149  0.58964337     0.40000
C1021       C  0.14620191  0.74425667  0.50660148     0.39100
C1022       C  0.17552724  0.72053979  0.67879356     0.36000
C1023       C  0.13476299  0.73863518  0.70157145     0.36700
C1024       C  0.18548418  0.77668564  0.75597647     0.39900
N1025       N  0.14015672  0.74917713  0.47215058    -0.38100
N1026       N  0.13907850  0.77280208  0.59865580    -0.39700
N1027       N  0.18299169  0.69173827  0.58889713    -0.37500
N1028       N  0.18140140  0.71577610  0.71376962    -0.39800
N1029       N  0.19475226  0.76405748  0.63414633    -0.39600
N1030       N  0.19569380  0.78458936  0.76592582    -0.37200
N1031       N  0.12409301  0.75217718  0.82062731    -0.38300
N1032       N  0.12438403  0.73129089  0.68932207    -0.40000
C1033       C  0.37376708  0.64099827  0.64422890    -0.04900
C1034       C  0.38848765  0.64250537  0.62332092     0.09300
C1035       C  0.39146918  0.65433129  0.58926990    -0.02300
C1036       C  0.37972826  0.66464851  0.57596234    -0.00500
C1037       C  0.36495224  0.66333678  0.59741078    -0.04200
C1038       C  0.36200462  0.65128499  0.63121449     0.02900
C1039       C  0.40078460  0.63136170  0.63672321     0.09700
C1040       C  0.40670072  0.65589922  0.56825241     0.35600
C1041       C  0.34698963  0.64955660  0.65377053     0.39000
C1042       C  0.40195533  0.61729522  0.61129144    -0.04500
C1043       C  0.41309547  0.60642130  0.62511112     0.02600
C1044       C  0.42333840  0.60962748  0.66439788    -0.04100
C1045       C  0.42211207  0.62386547  0.68971306    -0.00300
C1046       C  0.41089763  0.63467332  0.67571656    -0.02900
C1047       C  0.39175546  0.61412156  0.57031391     0.36300
C1048       C  0.43198338  0.62732300  0.73126866     0.40000
C1049       C  0.41410920  0.59209845  0.59780126     0.39100
C1050       C  0.40969394  0.64926914  0.70139044     0.36000
C1051       C  0.37083099  0.62897021  0.67996902     0.36700
C1052       C  0.38276702  0.67620203  0.53874976     0.39900
N1053       N  0.41484029  0.58065387  0.57612682    -0.38100
N1054       N  0.38366812  0.61162195  0.53750106    -0.39700
N1055       N  0.43979957  0.63014673  0.76450585    -0.37500
N1056       N  0.40870520  0.66095307  0.72157998    -0.39800
N1057       N  0.41889101  0.65715664  0.55179552    -0.39600
N1058       N  0.38516477  0.68535606  0.50884410    -0.37200
N1059       N  0.33499548  0.64812721  0.67154602    -0.38300
N1060       N  0.36850782  0.61942194  0.70862280    -0.40000
C1061       C  0.25791618  0.69200667  0.54845017    -0.04900
C1062       C  0.25467429  0.68167616  0.50973748     0.09300
C1063       C  0.26643716  0.67244600  0.49001962    -0.02300
C1064       C  0.28169697  0.67448403  0.50579706    -0.00500
C1065       C  0.28517346  0.68542501  0.54300901    -0.04200
C1066       C  0.27306779  0.69371366  0.56560679     0.02900
C1067       C  0.23925969  0.68186610  0.48596351     0.09700
C1068       C  0.26279293  0.66115456  0.45240140     0.35600
C1069       C  0.27612549  0.70395919  0.60672014     0.39000
C1070       C  0.23677011  0.69150629  0.44515352    -0.04500
C1071       C  0.22192681  0.69319335  0.42570629     0.02600
C1072       C  0.20937808  0.68542439  0.44749318    -0.04100
C1073       C  0.21218760  0.67465834  0.48555876    -0.00300
C1074       C  0.22713650  0.67289673  0.50461271    -0.02900
C1075       C  0.24954664  0.69980324  0.42346692     0.36300
C1076       C  0.19972466  0.66578039  0.50659153     0.40000
C1077       C  0.21972848  0.70266983  0.38244137     0.39100
C1078       C  0.23010224  0.66195391  0.54362115     0.36000
C1079       C  0.24567729  0.70121133  0.56962694     0.36700
C1080       C  0.29382407  0.66604215  0.48100718     0.39900
N1081       N  0.21816423  0.71012867  0.34760154    -0.38100
N1082       N  0.25978568  0.70632224  0.40614656    -0.39700
N1083       N  0.18980761  0.65863286  0.52328945    -0.37500
N1084       N  0.23254202  0.65314046  0.57446533    -0.39800
N1085       N  0.25975529  0.65210313  0.42266753    -0.39600
N1086       N  0.30346018  0.65937562  0.46080717    -0.37200
N1087       N  0.27859026  0.71208140  0.63961826    -0.38300
N1088       N  0.23591581  0.70856151  0.58645530    -0.40000
C1089       C  0.37067820  0.83730933  0.14882763    -0.04900
C1090       C  0.38487904  0.83787220  0.12402160     0.09300
C1091       C  0.38803805  0.82722059  0.08614774    -0.02300
C1092       C  0.37708835  0.81597064  0.07318149    -0.00500
C1093       C  0.36294251  0.81499066  0.09899416    -0.04200
C1094       C  0.35974173  0.82596677  0.13649119     0.02900
C1095       C  0.39659046  0.84972833  0.13770801     0.09700
C1096       C  0.40271376  0.82779177  0.06086348     0.35600
C1097       C  0.34536988  0.82551474  0.16350987     0.39000
C1098       C  0.40733430  0.84669183  0.17520387    -0.04500
C1099       C  0.41869306  0.85764476  0.18710111     0.02600
C1100       C  0.41933115  0.87181345  0.16167061    -0.04100
C1101       C  0.40839041  0.87487186  0.12441669    -0.00300
C1102       C  0.39709959  0.86386200  0.11254863    -0.02900
C1103       C  0.40660368  0.83226160  0.20166862     0.36300
C1104       C  0.40899145  0.88913839  0.09694655     0.40000
C1105       C  0.42940323  0.85446483  0.22661026     0.39100
C1106       C  0.38600938  0.86701911  0.07412973     0.36000
C1107       C  0.36745271  0.84832328  0.18773514     0.36700
C1108       C  0.38028921  0.80583946  0.03189797     0.39900
N1109       N  0.43795001  0.85196685  0.25815436    -0.38100
N1110       N  0.40593632  0.82074919  0.22276072    -0.39700
N1111       N  0.40948743  0.90053239  0.07514082    -0.37500
N1112       N  0.37716953  0.86955513  0.04347540    -0.39800
N1113       N  0.41446588  0.82827144  0.04100038    -0.39600
N1114       N  0.38293153  0.79790963  0.99864224    -0.37200
N1115       N  0.33388303  0.82524737  0.18497325    -0.38300
N1116       N  0.36492433  0.85709690  0.21883550    -0.40000
C1117       C  0.26806550  0.79558658  0.97750829    -0.04900
C1118       C  0.25621730  0.78860407  0.00480872     0.09300
C1119       C  0.25956510  0.78146633  0.05003702    -0.02300
C1120       C  0.27478181  0.78087150  0.06736556    -0.00500
C1121       C  0.28692216  0.78732917  0.03916180    -0.04200
C1122       C  0.28335268  0.79495445  0.99436971     0.02900
C1123       C  0.24017997  0.78834658  0.98532085     0.09700
C1124       C  0.24727076  0.77452199  0.07847020     0.35600
C1125       C  0.29533786  0.80172975  0.96423367     0.39000
C1126       C  0.23588181  0.77722171  0.95013572    -0.04500
C1127       C  0.22059244  0.77643719  0.93333577     0.02600
C1128       C  0.20938357  0.78673506  0.95206468    -0.04100
C1129       C  0.21388091  0.79806677  0.98688007    -0.00300
C1130       C  0.22919565  0.79880175  0.00343050    -0.02900
C1131       C  0.24720577  0.76630679  0.93231007     0.36300
C1132       C  0.20269713  0.80857927  0.00777079     0.40000
C1133       C  0.21656412  0.76511423  0.89622918     0.39100
C1134       C  0.23362805  0.81000589  0.04045983     0.36000
C1135       C  0.26448687  0.80324669  0.93151049     0.36700
C1136       C  0.27773856  0.77363381  0.11453878     0.39900
N1137       N  0.21345487  0.75605210  0.86659957    -0.38100
N1138       N  0.25632684  0.75763978  0.91851311    -0.39700
N1139       N  0.19383516  0.81699787  0.02459991    -0.37500
N1140       N  0.23722588  0.81881173  0.07029909    -0.39800
N1141       N  0.23742958  0.76903991  0.10107997    -0.39600
N1142       N  0.28001951  0.76781469  0.15213137    -0.37200
N1143       N  0.30485338  0.80716550  0.94009769    -0.38300
N1144       N  0.26161891  0.80934007  0.89481088    -0.40000
C1145       C  0.32136837  0.73630950  0.88918135    -0.04900
C1146       C  0.33352585  0.73776412  0.85514454     0.09300
C1147       C  0.34662816  0.74638032  0.86781058    -0.02300
C1148       C  0.34745141  0.75383276  0.91392256    -0.00500
C1149       C  0.33516694  0.75268183  0.94780056    -0.04200
C1150       C  0.32212219  0.74378714  0.93532335     0.02900
C1151       C  0.33248976  0.73030486  0.80556352     0.09700
C1152       C  0.35926329  0.74760779  0.83316616     0.35600
C1153       C  0.30904014  0.74302552  0.96848353     0.39000
C1154       C  0.32703883  0.73868205  0.76481560    -0.04500
C1155       C  0.32631990  0.73174281  0.71777988     0.02600
C1156       C  0.33097702  0.71628482  0.71124784    -0.04100
C1157       C  0.33635673  0.70790784  0.75248953    -0.00300
C1158       C  0.33713028  0.71493514  0.79935721    -0.02900
C1159       C  0.32215804  0.75448051  0.77150420     0.36300
C1160       C  0.34174129  0.69224495  0.74666551     0.40000
C1161       C  0.32043687  0.74047782  0.67648494     0.39100
C1162       C  0.34294739  0.70646787  0.84133984     0.36000
C1163       C  0.30796409  0.72731130  0.87618853     0.36700
C1164       C  0.36104766  0.76256179  0.92658387     0.39900
N1165       N  0.31576280  0.74747591  0.64357730    -0.38100
N1166       N  0.31827720  0.76707757  0.77699014    -0.39700
N1167       N  0.34608274  0.67976058  0.74221796    -0.37500
N1168       N  0.34759977  0.69981804  0.87501078    -0.39800
N1169       N  0.36936422  0.74859851  0.80560425    -0.39600
N1170       N  0.37189178  0.76954257  0.93662396    -0.37200
N1171       N  0.29854297  0.74245582  0.99463312    -0.38300
N1172       N  0.29729735  0.72010748  0.86575311    -0.40000
C1173       C  0.33573741  0.75727014  0.29980540    -0.04900
C1174       C  0.34013780  0.74171918  0.30117963     0.09300
C1175       C  0.34429918  0.73409731  0.25728043    -0.02300
C1176       C  0.34329005  0.74172872  0.21162783    -0.00500
C1177       C  0.33832679  0.75722799  0.20969322    -0.04200
C1178       C  0.33484674  0.76503389  0.25434501     0.02900
C1179       C  0.33950890  0.73305749  0.34859351     0.09700
C1180       C  0.34955048  0.71830457  0.25928225     0.35600
C1181       C  0.33054726  0.78113291  0.25402383     0.39000
C1182       C  0.32632007  0.72443144  0.36030826    -0.04500
C1183       C  0.32550817  0.71631859  0.40507906     0.02600
C1184       C  0.33791436  0.71679882  0.43856514    -0.04100
C1185       C  0.35121128  0.72529512  0.42645274    -0.00300
C1186       C  0.35197752  0.73342922  0.38154507    -0.02900
C1187       C  0.31346311  0.72412794  0.32645340     0.36300
C1188       C  0.36429035  0.72527909  0.45932349     0.40000
C1189       C  0.31158708  0.70801251  0.41745928     0.39100
C1190       C  0.36555634  0.74221728  0.36899691     0.36000
C1191       C  0.33210608  0.76526269  0.34538756     0.36700
C1192       C  0.34675724  0.73328701  0.16674942     0.39900
N1193       N  0.30046963  0.70143195  0.42731539    -0.38100
N1194       N  0.30322015  0.72390652  0.29942724    -0.39700
N1195       N  0.37479547  0.72523037  0.48529684    -0.37500
N1196       N  0.37632605  0.74929000  0.35868803    -0.39800
N1197       N  0.35381611  0.70573903  0.26103937    -0.39600
N1198       N  0.34951561  0.72650998  0.13103353    -0.37200
N1199       N  0.32709317  0.79396229  0.25382197    -0.38300
N1200       N  0.32930478  0.77165893  0.38177605    -0.40000
C1201       C  0.59800386  0.61396946  0.11453710    -0.04900
C1202       C  0.60011253  0.62753860  0.14224376     0.09300
C1203       C  0.59033924  0.63065870  0.18266180    -0.02300
C1204       C  0.57853958  0.62029027  0.19533388    -0.00500
C1205       C  0.57600394  0.60698877  0.16640963    -0.04200
C1206       C  0.58578346  0.60393276  0.12573240     0.02900
C1207       C  0.61218948  0.63894273  0.12776115     0.09700
C1208       C  0.59237489  0.64467519  0.21094466     0.35600
C1209       C  0.58290451  0.59084236  0.09382683     0.39000
C1210       C  0.60998781  0.64835655  0.08604948    -0.04500
C1211       C  0.62068183  0.65996838  0.07452565     0.02600
C1212       C  0.63356149  0.66242099  0.10507002    -0.04100
C1213       C  0.63600582  0.65268113  0.14597903    -0.00300
C1214       C  0.62541606  0.64091822  0.15701959    -0.02900
C1215       C  0.59651104  0.64628204  0.05550935     0.36300
C1216       C  0.64898297  0.65524797  0.17835938     0.40000
C1217       C  0.61855720  0.66920199  0.03062083     0.39100
C1218       C  0.62795832  0.63102452  0.19915666     0.36000
C1219       C  0.60843908  0.61035139  0.07439824     0.36700
C1220       C  0.56938126  0.62309217  0.23919671     0.39900
N1221       N  0.61692294  0.67654944  0.99553588    -0.38100
N1222       N  0.58577300  0.64455742  0.03114516    -0.39700
N1223       N  0.65931493  0.65739250  0.20416844    -0.37500
N1224       N  0.62998123  0.62319334  0.23291927    -0.39800
N1225       N  0.59410463  0.65587373  0.23331745    -0.39600
N1226       N  0.56214472  0.62524477  0.27438575    -0.37200
N1227       N  0.58051883  0.58046059  0.06823388    -0.38300
N1228       N  0.61678246  0.60742998  0.04246561    -0.40000
C1229       C  0.62293889  0.84094955  0.64966122    -0.04900
C1230       C  0.60780059  0.83877331  0.63320627     0.09300
C1231       C  0.60418189  0.82580758  0.60432801    -0.02300
C1232       C  0.61562697  0.81495310  0.59211946    -0.00500
C1233       C  0.63085754  0.81680260  0.60968928    -0.04200
C1234       C  0.63439220  0.83001299  0.63849343     0.02900
C1235       C  0.59572368  0.85047214  0.64489963     0.09700
C1236       C  0.58863309  0.82379317  0.58652399     0.35600
C1237       C  0.64973280  0.83246652  0.65755024     0.39000
C1238       C  0.59368217  0.86318688  0.61360559    -0.04500
C1239       C  0.58207950  0.87405045  0.62358090     0.02600
C1240       C  0.57261015  0.87250077  0.66585333    -0.04100
C1241       C  0.57488936  0.85983580  0.69770000    -0.00300
C1242       C  0.58635936  0.84884340  0.68705095    -0.02900
C1243       C  0.60362822  0.86508711  0.57107907     0.36300
C1244       C  0.56580839  0.85830937  0.74232479     0.40000
C1245       C  0.57955500  0.88645566  0.58894142     0.39100
C1246       C  0.58869459  0.83590048  0.71972235     0.36000
C1247       C  0.62673850  0.85462850  0.67777928     0.36700
C1248       C  0.61166346  0.80224157  0.55987994     0.39900
N1249       N  0.57752884  0.89629589  0.56112452    -0.38100
N1250       N  0.61164861  0.86662615  0.53738621    -0.39700
N1251       N  0.55860650  0.85709905  0.77802076    -0.37500
N1252       N  0.59061277  0.82557074  0.74573081    -0.39800
N1253       N  0.57623081  0.82221425  0.57232882    -0.39600
N1254       N  0.60843224  0.79218041  0.53393396    -0.37200
N1255       N  0.66195692  0.83450660  0.67273273    -0.38300
N1256       N  0.62976554  0.86559351  0.69990247    -0.40000
C1257       C  0.65328497  0.73917915  0.39802266    -0.04900
C1258       C  0.65977653  0.74594360  0.35567014     0.09300
C1259       C  0.66637481  0.76068937  0.35881385    -0.02300
C1260       C  0.66677811  0.76854009  0.40440872    -0.00500
C1261       C  0.66034596  0.76175175  0.44716714    -0.04200
C1262       C  0.65349106  0.74705323  0.44353811     0.02900
C1263       C  0.65998487  0.73732003  0.30786007     0.09700
C1264       C  0.67288623  0.76768762  0.31500421     0.35600
C1265       C  0.64635279  0.74007909  0.48637035     0.39000
C1266       C  0.64705642  0.73744974  0.27685721    -0.04500
C1267       C  0.64719813  0.72918438  0.23196546     0.02600
C1268       C  0.66039601  0.72075835  0.21747216    -0.04100
C1269       C  0.67322377  0.72038530  0.24963356    -0.00300
C1270       C  0.67302043  0.72874244  0.29428073    -0.02900
C1271       C  0.63357469  0.74610380  0.29152075     0.36300
C1272       C  0.68677033  0.71148704  0.23733319     0.40000
C1273       C  0.63344441  0.72887972  0.20203077     0.39100
C1274       C  0.68628439  0.72855582  0.32650301     0.36000
C1275       C  0.64647023  0.72401919  0.39467307     0.36700
C1276       C  0.67450853  0.78325855  0.40748567     0.39900
N1277       N  0.62240577  0.72860411  0.17846748    -0.38100
N1278       N  0.62286470  0.75301797  0.30357633    -0.39700
N1279       N  0.69756675  0.70426747  0.22833989    -0.37500
N1280       N  0.69686709  0.72844783  0.35213837    -0.39800
N1281       N  0.67805161  0.77322786  0.27995576    -0.39600
N1282       N  0.68075187  0.79496346  0.40975983    -0.37200
N1283       N  0.64066269  0.73452659  0.52055360    -0.38300
N1284       N  0.64103051  0.71192911  0.39188644    -0.40000
C1285       C  0.66947016  0.75397634  0.79808783    -0.04900
C1286       C  0.65672610  0.74437517  0.80630185     0.09300
C1287       C  0.64541766  0.74286560  0.76965444    -0.02300
C1288       C  0.64685948  0.75084570  0.72461713    -0.00500
C1289       C  0.65975471  0.76044010  0.71577832    -0.04200
C1290       C  0.67096772  0.76205163  0.75332457     0.02900
C1291       C  0.65539777  0.73566741  0.85362038     0.09700
C1292       C  0.63222833  0.73309188  0.77863011     0.35600
C1293       C  0.68421845  0.77190058  0.74639331     0.39000
C1294       C  0.64960525  0.74289706  0.89628949    -0.04500
C1295       C  0.64940674  0.73503597  0.94176163     0.02600
C1296       C  0.65520607  0.71983898  0.94504551    -0.04100
C1297       C  0.66012042  0.71233762  0.90113765    -0.00300
C1298       C  0.66029463  0.72028523  0.85585566    -0.02900
C1299       C  0.64387412  0.75850820  0.89318553     0.36300
C1300       C  0.66532300  0.69651736  0.90194516     0.40000
C1301       C  0.64276216  0.74252437  0.98460823     0.39100
C1302       C  0.66577990  0.71275259  0.81137382     0.36000
C1303       C  0.68116454  0.75540423  0.83580141     0.36700
C1304       C  0.63469095  0.74952546  0.68848557     0.39900
N1305       N  0.63734630  0.74851290  0.01862064    -0.38100
N1306       N  0.63930586  0.77094492  0.89043873    -0.39700
N1307       N  0.66936186  0.68386632  0.90208756    -0.37500
N1308       N  0.67009689  0.70681830  0.77569356    -0.39800
N1309       N  0.62174989  0.72526857  0.78597826    -0.39600
N1310       N  0.62490522  0.74845160  0.65992603    -0.37200
N1311       N  0.69472993  0.77985928  0.74143478    -0.38300
N1312       N  0.69048858  0.75653287  0.86588079    -0.40000
C1313       C  0.76875828  0.68494927  0.02981780    -0.04900
C1314       C  0.75733999  0.69392642  0.00725681     0.09300
C1315       C  0.76135026  0.70436212  0.96976102    -0.02300
C1316       C  0.77684246  0.70636068  0.95637305    -0.00500
C1317       C  0.78845294  0.69788417  0.98045304    -0.04200
C1318       C  0.78426477  0.68675227  0.01604214     0.02900
C1319       C  0.74111775  0.69310659  0.02471012     0.09700
C1320       C  0.74946878  0.71320968  0.94553747     0.35600
C1321       C  0.79586327  0.67738603  0.03958842     0.39000
C1322       C  0.73615006  0.70302773  0.06256466    -0.04500
C1323       C  0.72058571  0.70341605  0.07642509     0.02600
C1324       C  0.70977495  0.69382652  0.05233631    -0.04100
C1325       C  0.71496416  0.68347113  0.01536042    -0.00300
C1326       C  0.73058644  0.68318314  0.00161149    -0.02900
C1327       C  0.74707201  0.71319668  0.08636229     0.36300
C1328       C  0.70423757  0.67362960  0.98939506     0.40000
C1329       C  0.71587526  0.71386817  0.11538206     0.39100
C1330       C  0.73581572  0.67303807  0.96250757     0.36000
C1331       C  0.76454041  0.67415237  0.06816755     0.36700
C1332       C  0.78073391  0.71681893  0.91670776     0.39900
N1333       N  0.71234532  0.72240229  0.14616051    -0.38100
N1334       N  0.75575404  0.72134073  0.10526060    -0.39700
N1335       N  0.69574308  0.66575092  0.96853522    -0.37500
N1336       N  0.74002586  0.66500283  0.93122316    -0.39800
N1337       N  0.73992518  0.72020527  0.92635303    -0.39600
N1338       N  0.78381035  0.72509079  0.88485306    -0.37200
N1339       N  0.80506899  0.66977272  0.05804443    -0.38300
N1340       N  0.76116902  0.66558129  0.09887491    -0.40000
C1341       C  0.72976621  0.80766917  0.50692939    -0.04900
C1342       C  0.74141066  0.79890807  0.52908615     0.09300
C1343       C  0.73778045  0.78891805  0.56815726    -0.02300
C1344       C  0.72244174  0.78720036  0.58381911    -0.00500
C1345       C  0.71048839  0.79525362  0.55966751    -0.04200
C1346       C  0.71437882  0.80598057  0.52228135     0.02900
C1347       C  0.75746964  0.79960357  0.50979544     0.09700
C1348       C  0.74985546  0.78000140  0.59113705     0.35600
C1349       C  0.70263311  0.81499070  0.49805154     0.39000
C1350       C  0.76831666  0.80942987  0.53181764    -0.04500
C1351       C  0.78373805  0.80921493  0.51587541     0.02600
C1352       C  0.78848768  0.79882610  0.47840541    -0.04100
C1353       C  0.77733476  0.78953814  0.45481539    -0.00300
C1354       C  0.76192935  0.78990944  0.47062806    -0.02900
C1355       C  0.76368593  0.81931719  0.57234902     0.36300
C1356       C  0.78158448  0.77953914  0.41411612     0.40000
C1357       C  0.79474734  0.81914815  0.54020691     0.39100
C1358       C  0.75069216  0.77990986  0.44766555     0.36000
C1359       C  0.73362215  0.81803700  0.46698592     0.36700
C1360       C  0.71914430  0.77720510  0.62521345     0.39900
N1361       N  0.80348249  0.82707200  0.55982416    -0.38100
N1362       N  0.76002591  0.82712480  0.60491466    -0.39700
N1363       N  0.78486891  0.77149200  0.38173695    -0.37500
N1364       N  0.74174465  0.77190207  0.42945838    -0.39800
N1365       N  0.75950462  0.77285956  0.60919376    -0.39600
N1366       N  0.71668081  0.76920034  0.65828532    -0.37200
N1367       N  0.69332478  0.82227775  0.47878068    -0.38300
N1368       N  0.73672673  0.82623385  0.43496680    -0.40000
C1369       C  0.84195302  0.75591290  0.77919091    -0.04900
C1370       C  0.83961987  0.74810796  0.73420524     0.09300
C1371       C  0.83592427  0.73235992  0.73448201    -0.02300
C1372       C  0.83488765  0.72431727  0.77941240    -0.00500
C1373       C  0.83720062  0.73207571  0.82484530    -0.04200
C1374       C  0.84061226  0.74800167  0.82437831     0.02900
C1375       C  0.83997850  0.75668619  0.68647311     0.09700
C1376       C  0.83272764  0.72453299  0.68833378     0.35600
C1377       C  0.84195378  0.75653073  0.87022469     0.39000
C1378       C  0.85287530  0.75577379  0.65500201    -0.04500
C1379       C  0.85276936  0.76329076  0.60891298     0.02600
C1380       C  0.83985448  0.77196402  0.59449337    -0.04100
C1381       C  0.82702763  0.77297530  0.62635646    -0.00300
C1382       C  0.82704165  0.76522446  0.67188452    -0.02900
C1383       C  0.86613935  0.74689961  0.66985408     0.36300
C1384       C  0.81339995  0.78123756  0.61120829     0.40000
C1385       C  0.86599664  0.76222260  0.57653712     0.39100
C1386       C  0.81348165  0.76547907  0.70302183     0.36000
C1387       C  0.84534653  0.77222377  0.77885041     0.36700
C1388       C  0.83158295  0.70798783  0.77837305     0.39900
N1389       N  0.87651970  0.76137294  0.55057322    -0.38100
N1390       N  0.87669331  0.73977004  0.68170568    -0.39700
N1391       N  0.80244863  0.78772484  0.59934165    -0.37500
N1392       N  0.80266705  0.76554967  0.72784404    -0.39800
N1393       N  0.83007786  0.71833905  0.65152614    -0.39600
N1394       N  0.82889187  0.69497638  0.77754414    -0.37200
N1395       N  0.84291502  0.76339655  0.90669517    -0.38300
N1396       N  0.84796858  0.78524925  0.77846689    -0.40000
C1397       C  0.84779892  0.74867364  0.14729023    -0.04900
C1398       C  0.84160954  0.74099695  0.18845760     0.09300
C1399       C  0.83653691  0.72569831  0.18370030    -0.02300
C1400       C  0.83670869  0.71842567  0.13714358    -0.00500
C1401       C  0.84200364  0.72646425  0.09500568    -0.04200
C1402       C  0.84799838  0.74147073  0.10072456     0.02900
C1403       C  0.84012286  0.74928895  0.23654080     0.09700
C1404       C  0.83096326  0.71752313  0.22671535     0.35600
C1405       C  0.85463330  0.74948789  0.05896438     0.39000
C1406       C  0.82814304  0.75994381  0.24357712    -0.04500
C1407       C  0.82718934  0.76852617  0.28763517     0.02600
C1408       C  0.83816059  0.76636295  0.32548602    -0.04100
C1409       C  0.85012406  0.75553690  0.31823083    -0.00300
C1410       C  0.85105439  0.74705656  0.27391912    -0.02900
C1411       C  0.81678798  0.76208011  0.20516769     0.36300
C1412       C  0.86195092  0.75353514  0.35515792     0.40000
C1413       C  0.81475038  0.77944509  0.29374274     0.39100
C1414       C  0.86344046  0.73618663  0.26611855     0.36000
C1415       C  0.85397640  0.76404469  0.15306464     0.36700
C1416       C  0.83078625  0.70291681  0.13265155     0.39900
N1417       N  0.80487067  0.78821221  0.29821117    -0.38100
N1418       N  0.80775274  0.76378843  0.17449594    -0.39700
N1419       N  0.87144279  0.75192760  0.38443428    -0.37500
N1420       N  0.87324771  0.72746837  0.25951509    -0.39800
N1421       N  0.82663883  0.71095162  0.26108346    -0.39600
N1422       N  0.82609584  0.69053163  0.12919403    -0.37200
N1423       N  0.85996055  0.75590410  0.02575742    -0.38300
N1424       N  0.85892989  0.77628254  0.15786433    -0.40000
C1425       C  0.11640707  0.64924956  0.34284613    -0.04900
C1426       C  0.10868116  0.64280864  0.38358980     0.09300
C1427       C  0.11265858  0.64734334  0.43186293    -0.02300
C1428       C  0.12429021  0.65834952  0.43938369    -0.00500
C1429       C  0.13179634  0.66508988  0.39852829    -0.04200
C1430       C  0.12775469  0.66053371  0.35019310     0.02900
C1431       C  0.09597221  0.63159617  0.37534172     0.09700
C1432       C  0.10479277  0.64061805  0.47375451     0.35600
C1433       C  0.13476794  0.66792181  0.30784648     0.39000
C1434       C  0.09921689  0.61589136  0.36827607    -0.04500
C1435       C  0.08722037  0.60540624  0.35891205     0.02600
C1436       C  0.07186763  0.61064571  0.35582037    -0.04100
C1437       C  0.06871385  0.62646937  0.36285252    -0.00300
C1438       C  0.08071347  0.63683848  0.37299637    -0.02900
C1439       C  0.11498372  0.61061284  0.36987074     0.36300
C1440       C  0.05309727  0.63216775  0.36047982     0.40000
C1441       C  0.09085500  0.58935563  0.35048334     0.39100
C1442       C  0.07739791  0.65298873  0.38091570     0.36000
C1443       C  0.11264371  0.64423833  0.29327870     0.36700
C1444       C  0.12886908  0.66234704  0.48919836     0.39900
N1445       N  0.09381493  0.57656704  0.34372386    -0.38100
N1446       N  0.12758447  0.60646903  0.37092433    -0.39700
N1447       N  0.04065194  0.63671891  0.35827491    -0.37500
N1448       N  0.07477571  0.66586117  0.38742168    -0.39800
N1449       N  0.09851019  0.63527397  0.50720528    -0.39600
N1450       N  0.13262318  0.66551739  0.52884491    -0.37200
N1451       N  0.14032268  0.67389865  0.27417493    -0.38300
N1452       N  0.10974197  0.64014551  0.25375708    -0.40000
C1453       C  0.89543272  0.62740319  0.84575062    -0.04900
C1454       C  0.89959516  0.63996611  0.87575312     0.09300
C1455       C  0.91481614  0.64136483  0.89254275    -0.02300
C1456       C  0.92584035  0.63018310  0.87977003    -0.00500
C1457       C  0.92158356  0.61724589  0.85112582    -0.04200
C1458       C  0.90632425  0.61599973  0.83381917     0.02900
C1459       C  0.88791455  0.65175229  0.89004078     0.09700
C1460       C  0.91903212  0.65422618  0.92380948     0.35600
C1461       C  0.90186299  0.60321282  0.80255060     0.39000
C1462       C  0.87809779  0.64914244  0.93058214    -0.04500
C1463       C  0.86718820  0.66032047  0.94448485     0.02600
C1464       C  0.86636507  0.67440917  0.91879409    -0.04100
C1465       C  0.87631916  0.67702996  0.87835497    -0.00300
C1466       C  0.88688115  0.66562725  0.86362446    -0.02900
C1467       C  0.87943471  0.63501033  0.95841469     0.36300
C1468       C  0.87541799  0.69126553  0.85082798     0.40000
C1469       C  0.85713779  0.65746202  0.98618539     0.39100
C1470       C  0.89659722  0.66803717  0.82083478     0.36000
C1471       C  0.87992572  0.62629518  0.82688746     0.36700
C1472       C  0.94143950  0.63185618  0.89748406     0.39900
N1473       N  0.84909700  0.65515619  0.01937418    -0.38100
N1474       N  0.88058997  0.62374588  0.98062173    -0.39700
N1475       N  0.87472967  0.70263101  0.82893385    -0.37500
N1476       N  0.90431442  0.66987046  0.78656936    -0.39800
N1477       N  0.92234583  0.66447393  0.94885861    -0.39600
N1478       N  0.95390292  0.63322830  0.91136612    -0.37200
N1479       N  0.89833008  0.59300354  0.77763538    -0.38300
N1480       N  0.86757541  0.62542661  0.81165010    -0.40000
C1481       C  0.99514606  0.57538856  0.01885599    -0.04900
C1482       C  0.98800665  0.58331892  0.05811524     0.09300
C1483       C  0.97372588  0.59049440  0.05071831    -0.02300
C1484       C  0.96663097  0.58988084  0.00409601    -0.00500
C1485       C  0.97390068  0.58220870  0.96428549    -0.04200
C1486       C  0.98822491  0.57498393  0.97190499     0.02900
C1487       C  0.99557404  0.58407584  0.10745047     0.09700
C1488       C  0.96640037  0.59859097  0.09123674     0.35600
C1489       C  0.99572893  0.56682417  0.93183850     0.39000
C1490       C  0.00686069  0.59528669  0.11695785    -0.04500
C1491       C  0.01442427  0.59563621  0.16287091     0.02600
C1492       C  0.01092788  0.58455344  0.19930483    -0.04100
C1493       C  0.99948148  0.57339891  0.18964881    -0.00300
C1494       C  0.99161370  0.57341676  0.14432290    -0.02900
C1495       C  0.01056922  0.60654315  0.07944845     0.36300
C1496       C  0.99634779  0.56129881  0.22496518     0.40000
C1497       C  0.02557167  0.60761421  0.17280534     0.39100
C1498       C  0.97938196  0.56246746  0.13548368     0.36000
C1499       C  0.00953204  0.56745519  0.02714575     0.36700
C1500       C  0.95211974  0.59769058  0.99682575     0.39900
N1501       N  0.03444346  0.61717608  0.18086325    -0.38100
N1502       N  0.01348535  0.61551864  0.04946973    -0.39700
N1503       N  0.99393564  0.55156329  0.25289269    -0.37500
N1504       N  0.96949337  0.55387323  0.12856956    -0.39800
N1505       N  0.96059520  0.60501956  0.12368770    -0.39600
N1506       N  0.94054916  0.60393049  0.99108377    -0.37200
N1507       N  0.00176041  0.56036249  0.89987560    -0.38300
N1508       N  0.02096403  0.56106726  0.03393548    -0.40000
C1509       C  0.97786530  0.57917199  0.60869096    -0.04900
C1510       C  0.98793494  0.59142264  0.59835952     0.09300
C1511       C  0.99035528  0.60299512  0.63406456    -0.02300
C1512       C  0.98287357  0.60221430  0.68021097    -0.00500
C1513       C  0.97281273  0.58990760  0.69069220    -0.04200
C1514       C  0.97033110  0.57839128  0.65459992     0.02900
C1515       C  0.99658227  0.59158541  0.55065598     0.09700
C1516       C  0.00073776  0.61557884  0.62343410     0.35600
C1517       C  0.96079832  0.56515603  0.66558111     0.39000
C1518       C  0.98902243  0.59517360  0.50622505    -0.04500
C1519       C  0.99688368  0.59401782  0.46076087     0.02600
C1520       C  0.01237118  0.58910503  0.45952887    -0.04100
C1521       C  0.02009239  0.58629890  0.50451658    -0.00300
C1522       C  0.01216601  0.58732095  0.54971045    -0.02900
C1523       C  0.97297867  0.59958041  0.50742439     0.36300
C1524       C  0.03636149  0.58278905  0.50469351     0.40000
C1525       C  0.98878631  0.59747374  0.41548460     0.39100
C1526       C  0.01995123  0.58356175  0.59535259     0.36000
C1527       C  0.97563647  0.56708048  0.57243319     0.36700
C1528       C  0.98548365  0.61414839  0.71665747     0.39900
N1529       N  0.98221800  0.60035374  0.37967112    -0.38100
N1530       N  0.96014171  0.60293436  0.50873170    -0.39700
N1531       N  0.04935529  0.58008317  0.50477937    -0.37500
N1532       N  0.02612354  0.58058491  0.63180046    -0.39800
N1533       N  0.00911163  0.62554477  0.61495617    -0.39600
N1534       N  0.98762448  0.62366049  0.74571719    -0.37200
N1535       N  0.95329607  0.55453433  0.67427271    -0.38300
N1536       N  0.97387159  0.55749654  0.54335704    -0.40000
C1537       C  0.11405635  0.34869061  0.08895190    -0.04900
C1538       C  0.10245446  0.34665511  0.12464878     0.09300
C1539       C  0.10210123  0.33312242  0.15300947    -0.02300
C1540       C  0.11323150  0.32158804  0.14551731    -0.00500
C1541       C  0.12509952  0.32369738  0.11037930    -0.04200
C1542       C  0.12554039  0.33742343  0.08253335     0.02900
C1543       C  0.09037711  0.35866149  0.13200156     0.09700
C1544       C  0.09020086  0.33110917  0.18994095     0.35600
C1545       C  0.13752716  0.33982182  0.04616761     0.39000
C1546       C  0.07607314  0.35715228  0.10842575    -0.04500
C1547       C  0.06435781  0.36799058  0.11723417     0.02600
C1548       C  0.06701780  0.38068927  0.14880333    -0.04100
C1549       C  0.08149530  0.38232123  0.17168917    -0.00300
C1550       C  0.09303705  0.37120501  0.16386263    -0.02900
C1551       C  0.07341070  0.34428469  0.07545323     0.36300
C1552       C  0.08431627  0.39501236  0.20524265     0.40000
C1553       C  0.04961515  0.36606278  0.09335148     0.39100
C1554       C  0.10749395  0.37233783  0.18992344     0.36000
C1555       C  0.11386394  0.36220710  0.05784247     0.36700
C1556       C  0.11262366  0.30773796  0.17508406     0.39900
N1557       N  0.03783725  0.36442385  0.07449990    -0.38100
N1558       N  0.07136804  0.33398471  0.04923255    -0.39700
N1559       N  0.08655868  0.40512267  0.23206088    -0.37500
N1560       N  0.11898252  0.37314212  0.21101676    -0.39800
N1561       N  0.08068425  0.32957749  0.21934545    -0.39600
N1562       N  0.11206374  0.29668808  0.19862856    -0.37200
N1563       N  0.14712487  0.34178162  0.01730044    -0.38300
N1564       N  0.11357663  0.37292321  0.03273283    -0.40000
C1565       C  0.05679435  0.47888845  0.23848732    -0.04900
C1566       C  0.04380543  0.48810118  0.24758497     0.09300
C1567       C  0.02900914  0.48207459  0.23966971    -0.02300
C1568       C  0.02717346  0.46679860  0.22350432    -0.00500
C1569       C  0.04018840  0.45754556  0.21346196    -0.04200
C1570       C  0.05502937  0.46372548  0.22082501     0.02900
C1571       C  0.04558878  0.50432208  0.26475958     0.09700
C1572       C  0.01563519  0.49166366  0.24809996     0.35600
C1573       C  0.06852296  0.45473182  0.20874662     0.39000
C1574       C  0.04862222  0.51604943  0.23034917    -0.04500
C1575       C  0.04847989  0.53155953  0.24541116     0.02600
C1576       C  0.04524592  0.53539803  0.29513471    -0.04100
C1577       C  0.04310467  0.52355465  0.33004427    -0.00300
C1578       C  0.04335220  0.50806385  0.31488882    -0.02900
C1579       C  0.05145773  0.51211554  0.17910276     0.36300
C1580       C  0.04068211  0.52729248  0.38166789     0.40000
C1581       C  0.05072735  0.54352168  0.20894999     0.39100
C1582       C  0.04116267  0.49593452  0.35075703     0.36000
C1583       C  0.07196515  0.48509174  0.24751090     0.36700
C1584       C  0.01181950  0.46047970  0.21936962     0.39900
N1585       N  0.05250285  0.55304246  0.17979843    -0.38100
N1586       N  0.05378246  0.50890465  0.13832183    -0.39700
N1587       N  0.03874236  0.53033115  0.42279223    -0.37500
N1588       N  0.03947386  0.48626871  0.37945193    -0.39800
N1589       N  0.00497087  0.49931223  0.25468814    -0.39600
N1590       N  0.99958579  0.45541721  0.21632921    -0.37200
N1591       N  0.07932079  0.44762534  0.19888180    -0.38300
N1592       N  0.08401241  0.49014808  0.25494155    -0.40000
C1593       C  0.94821446  0.48639085  0.69922501    -0.04900
C1594       C  0.93927052  0.49012777  0.74085327     0.09300
C1595       C  0.93046286  0.47868842  0.76414659    -0.02300
C1596       C  0.93120765  0.46332730  0.74746299    -0.00500
C1597       C  0.94078691  0.45932274  0.70701974    -0.04200
C1598       C  0.94907445  0.47107502  0.68247966     0.02900
C1599       C  0.94017676  0.50594584  0.76213932     0.09700
C1600       C  0.92094119  0.48272138  0.80617418     0.35600
C1601       C  0.95871853  0.46755572  0.64029323     0.39000
C1602       C  0.93005362  0.51750351  0.74629471    -0.04500
C1603       C  0.93199053  0.53277643  0.76266597     0.02600
C1604       C  0.94413736  0.53657557  0.79522328    -0.04100
C1605       C  0.95399119  0.52478020  0.81210487    -0.00300
C1606       C  0.95199638  0.50956200  0.79555578    -0.02900
C1607       C  0.91794623  0.51371809  0.71177029     0.36300
C1608       C  0.96625273  0.52818190  0.84654578     0.40000
C1609       C  0.92197553  0.54463022  0.74346005     0.39100
C1610       C  0.96237490  0.49760363  0.81193859     0.36000
C1611       C  0.95678907  0.49838451  0.67427442     0.36700
C1612       C  0.92285624  0.45158610  0.77423188     0.39900
N1613       N  0.91402107  0.55407991  0.72793536    -0.38100
N1614       N  0.90830332  0.51070664  0.68416362    -0.39700
N1615       N  0.97607749  0.53088826  0.87382276    -0.37500
N1616       N  0.97066384  0.48806513  0.82487443    -0.39800
N1617       N  0.91332325  0.48597243  0.83961526    -0.39600
N1618       N  0.91623545  0.44222698  0.79577014    -0.37200
N1619       N  0.96659733  0.46496123  0.60690123    -0.38300
N1620       N  0.96354565  0.50803834  0.65459889    -0.40000
C1621       C  0.98344361  0.39416637  0.47715866    -0.04900
C1622       C  0.98316887  0.40649563  0.44368217     0.09300
C1623       C  0.97517937  0.42004562  0.45599325    -0.02300
C1624       C  0.96771577  0.42141180  0.50205993    -0.00500
C1625       C  0.96843688  0.40927246  0.53673543    -0.04200
C1626       C  0.97619701  0.39553423  0.52354511     0.02900
C1627       C  0.99176895  0.40543622  0.39595469     0.09700
C1628       C  0.97486851  0.43269368  0.42126849     0.35600
C1629       C  0.97642986  0.38254791  0.55694382     0.39000
C1630       C  0.98396226  0.40227542  0.35161736    -0.04500
C1631       C  0.99203999  0.40190109  0.30641886     0.02600
C1632       C  0.00800132  0.40496277  0.30519357    -0.04100
C1633       C  0.01580469  0.40789372  0.35005141    -0.00300
C1634       C  0.00771660  0.40803275  0.39512818    -0.02900
C1635       C  0.96753539  0.39966350  0.35262875     0.36300
C1636       C  0.03202151  0.41164760  0.34999324     0.40000
C1637       C  0.98387762  0.39812303  0.26144587     0.39100
C1638       C  0.01573869  0.41132237  0.44077326     0.36000
C1639       C  0.99120175  0.38002978  0.46360089     0.36700
C1640       C  0.95962179  0.43551183  0.51366180     0.39900
N1641       N  0.97729996  0.39505933  0.22574131    -0.38100
N1642       N  0.95441404  0.39769915  0.35364455    -0.39700
N1643       N  0.04494016  0.41469372  0.34991244    -0.37500
N1644       N  0.02213668  0.41393036  0.47716764    -0.39800
N1645       N  0.97464632  0.44272296  0.39338317    -0.39600
N1646       N  0.95308338  0.44677634  0.52216046    -0.37200
N1647       N  0.97659950  0.37218094  0.58353830    -0.38300
N1648       N  0.99738654  0.36876806  0.45262198    -0.40000
C1649       C  0.99085241  0.41773544  0.86592912    -0.04900
C1650       C  0.98770780  0.40577073  0.89933705     0.09300
C1651       C  0.97693975  0.39433780  0.88682804    -0.02300
C1652       C  0.96907761  0.39503055  0.84139605    -0.00500
C1653       C  0.97225703  0.40699181  0.80761195    -0.04200
C1654       C  0.98329954  0.41828504  0.82009296     0.02900
C1655       C  0.99529069  0.40573516  0.94873614     0.09700
C1656       C  0.97399950  0.38188260  0.92096391     0.35600
C1657       C  0.98646656  0.43093965  0.78685878     0.39000
C1658       C  0.98753557  0.41190122  0.99000281    -0.04500
C1659       C  0.99500888  0.41296679  0.03589601     0.02600
C1660       C  0.01038329  0.40809048  0.04055570    -0.04100
C1661       C  0.01816532  0.40196175  0.99918046    -0.00300
C1662       C  0.01051463  0.40049066  0.95365129    -0.02900
C1663       C  0.97194020  0.41743656  0.98482694     0.36300
C1664       C  0.03403013  0.39714387  0.00340753     0.40000
C1665       C  0.98713499  0.41987254  0.07764120     0.39100
C1666       C  0.01823050  0.39347613  0.91184991     0.36000
C1667       C  0.00159293  0.42975287  0.87948540     0.36700
C1668       C  0.95793331  0.38326522  0.82926705     0.39900
N1669       N  0.98090533  0.42545501  0.11089100    -0.38100
N1670       N  0.95949715  0.42183180  0.98051215    -0.39700
N1671       N  0.04673222  0.39345004  0.00669178    -0.37500
N1672       N  0.02434085  0.38776973  0.87859392    -0.39800
N1673       N  0.97175938  0.37197831  0.94841167    -0.39600
N1674       N  0.94902137  0.37386830  0.81979922    -0.37200
N1675       N  0.98902538  0.44103275  0.76041669    -0.38300
N1676       N  0.01011791  0.43934486  0.89048827    -0.40000
C1677       C  0.11099681  0.14911280  0.59312831    -0.04900
C1678       C  0.10521694  0.14781225  0.64161465     0.09300
C1679       C  0.11091944  0.15752420  0.67908517    -0.02300
C1680       C  0.12227586  0.16855112  0.66797557    -0.00500
C1681       C  0.12774542  0.17011986  0.61916244    -0.04200
C1682       C  0.12210165  0.16035725  0.58179810     0.02900
C1683       C  0.09300387  0.13623696  0.65284304     0.09700
C1684       C  0.10498277  0.15623656  0.72891706     0.35600
C1685       C  0.12796210  0.16167551  0.53191207     0.39000
C1686       C  0.09690179  0.12199328  0.67394046    -0.04500
C1687       C  0.08545232  0.11090545  0.68320670     0.02600
C1688       C  0.06996141  0.11392308  0.67079942    -0.04100
C1689       C  0.06616587  0.12815398  0.64875091    -0.00300
C1690       C  0.07761173  0.13931391  0.64052594    -0.02900
C1691       C  0.11277194  0.11873804  0.68586880     0.36300
C1692       C  0.05061575  0.13115196  0.63243691     0.40000
C1693       C  0.08968194  0.09655123  0.70656631     0.39100
C1694       C  0.07358016  0.15402401  0.61920935     0.36000
C1695       C  0.10558663  0.13870360  0.55512909     0.36700
C1696       C  0.12815281  0.17850128  0.70655975     0.39900
N1697       N  0.09305117  0.08509524  0.72514947    -0.38100
N1698       N  0.12543418  0.11614852  0.69537985    -0.39700
N1699       N  0.03823101  0.13349173  0.61920020    -0.37500
N1700       N  0.07037875  0.16577225  0.60228833    -0.39800
N1701       N  0.10023971  0.15519361  0.76866823    -0.39600
N1702       N  0.13289679  0.18644793  0.73721077    -0.37200
N1703       N  0.13265633  0.16269476  0.49210167    -0.38300
N1704       N  0.10122370  0.13029549  0.52517511    -0.40000
C1705       C  0.98811770  0.10299117  0.00663649    -0.04900
C1706       C  0.99118492  0.09020149  0.97608072     0.09300
C1707       C  0.98717370  0.07533004  0.99211389    -0.02300
C1708       C  0.98011207  0.07321871  0.03837220    -0.00500
C1709       C  0.97666504  0.08602549  0.06846844    -0.04200
C1710       C  0.98078865  0.10092589  0.05262185     0.02900
C1711       C  0.99912405  0.09211310  0.92749791     0.09700
C1712       C  0.99043872  0.06215843  0.96093297     0.35600
C1713       C  0.97707268  0.11418851  0.08293284     0.39000
C1714       C  0.01525592  0.09252324  0.92540651    -0.04500
C1715       C  0.02291856  0.09192259  0.87946717     0.02600
C1716       C  0.01441363  0.09103262  0.83493631    -0.04100
C1717       C  0.99817497  0.09198393  0.83741136    -0.00300
C1718       C  0.99060138  0.09219638  0.88346569    -0.02900
C1719       C  0.02393855  0.09305276  0.97096079     0.36300
C1720       C  0.98915218  0.09313953  0.79270003     0.40000
C1721       C  0.03954504  0.09175852  0.87882875     0.39100
C1722       C  0.97397515  0.09209008  0.88565900     0.36000
C1723       C  0.99247972  0.11826059  0.99074322     0.36700
C1724       C  0.97702823  0.05779452  0.05588277     0.39900
N1725       N  0.05281416  0.09170757  0.87881140    -0.38100
N1726       N  0.03073744  0.09352651  0.00751955    -0.39700
N1727       N  0.98199312  0.09419001  0.75699375    -0.37500
N1728       N  0.96071680  0.09192006  0.88733076    -0.39800
N1729       N  0.99300811  0.05169172  0.93587381    -0.39600
N1730       N  0.97468727  0.04548399  0.06999315    -0.37200
N1731       N  0.97405383  0.12469865  0.10729827    -0.38300
N1732       N  0.99597786  0.13048926  0.97847114    -0.40000
C1733       C  0.00660192  0.07661548  0.48343420    -0.04900
C1734       C  0.99518978  0.08795522  0.47816599     0.09300
C1735       C  0.99205703  0.09803212  0.51761894    -0.02300
C1736       C  0.00041708  0.09695406  0.56202816    -0.00500
C1737       C  0.01181853  0.08545559  0.56793042    -0.04200
C1738       C  0.01474288  0.07520763  0.52815338     0.02900
C1739       C  0.98614429  0.08887622  0.43132595     0.09700
C1740       C  0.98003264  0.10941949  0.51257661     0.35600
C1741       C  0.02567969  0.06276267  0.53335910     0.39000
C1742       C  0.97370528  0.07881876  0.42362310    -0.04500
C1743       C  0.96607551  0.07851993  0.37783334     0.02600
C1744       C  0.97079723  0.08838608  0.33921129    -0.04100
C1745       C  0.98286970  0.09894836  0.34783233    -0.00300
C1746       C  0.99043286  0.09923223  0.39383767    -0.02900
C1747       C  0.96897583  0.06850144  0.46270681     0.36300
C1748       C  0.98760826  0.10952363  0.30943551     0.40000
C1749       C  0.95404176  0.06728401  0.36972704     0.39100
C1750       C  0.00278153  0.11005704  0.40252096     0.36000
C1751       C  0.00984100  0.06625514  0.44268733     0.36700
C1752       C  0.99736248  0.10796039  0.60108747     0.39900
N1753       N  0.94449859  0.05827991  0.36312223    -0.38100
N1754       N  0.96518921  0.06026624  0.49385552    -0.39700
N1755       N  0.99145503  0.11791859  0.27878509    -0.37500
N1756       N  0.01257255  0.11875548  0.40954619    -0.39800
N1757       N  0.97039576  0.11845467  0.50855280    -0.39600
N1758       N  0.99493102  0.11673500  0.63227747    -0.37200
N1759       N  0.03433927  0.05277944  0.53739749    -0.38300
N1760       N  0.01239762  0.05800922  0.41014616    -0.40000
C1761       C  0.10392456  0.86755580  0.85929984    -0.04900
C1762       C  0.09909446  0.85413241  0.88386957     0.09300
C1763       C  0.08379846  0.85288338  0.90023552    -0.02300
C1764       C  0.07332903  0.86492794  0.89177740    -0.00500
C1765       C  0.07791777  0.87814521  0.86516324    -0.04200
C1766       C  0.09336453  0.87946627  0.84946941     0.02900
C1767       C  0.11009478  0.84116513  0.89182936     0.09700
C1768       C  0.07880186  0.83908596  0.92543722     0.35600
C1769       C  0.09834507  0.89275105  0.82157207     0.39000
C1770       C  0.11828008  0.84000755  0.93647053    -0.04500
C1771       C  0.12883126  0.82791763  0.94355331     0.02600
C1772       C  0.13116185  0.81682922  0.90609047    -0.04100
C1773       C  0.12293484  0.81801108  0.86140141    -0.00300
C1774       C  0.11240928  0.83010747  0.85441209    -0.02900
C1775       C  0.11581654  0.85131286  0.97504669     0.36300
C1776       C  0.12586676  0.80723057  0.82154695     0.40000
C1777       C  0.13708214  0.82675821  0.98975250     0.39100
C1778       C  0.10400146  0.83127420  0.80851322     0.36000
C1779       C  0.11980062  0.86900156  0.84389427     0.36700
C1780       C  0.05795458  0.86389762  0.91216329     0.39900
N1781       N  0.14369317  0.82585388  0.02657218    -0.38100
N1782       N  0.11379675  0.86034708  0.00575524    -0.39700
N1783       N  0.12832501  0.79868423  0.78973272    -0.37500
N1784       N  0.09728934  0.83221946  0.77189913    -0.39800
N1785       N  0.07478589  0.82805899  0.94537380    -0.39600
N1786       N  0.04571581  0.86317144  0.92860250    -0.37200
N1787       N  0.10240587  0.90328486  0.79912282    -0.38300
N1788       N  0.13249553  0.87008937  0.83187181    -0.40000
C1789       C  0.05987025  0.97762618  0.75288949    -0.04900
C1790       C  0.05180936  0.98902546  0.77923059     0.09300
C1791       C  0.04365151  0.98509021  0.82229603    -0.02300
C1792       C  0.04301525  0.96967972  0.83804240    -0.00500
C1793       C  0.05089494  0.95807662  0.81129125    -0.04200
C1794       C  0.05957864  0.96224616  0.76905285     0.02900
C1795       C  0.05087123  0.00505137  0.75988519     0.09700
C1796       C  0.03556389  0.99696335  0.84961930     0.35600
C1797       C  0.06752518  0.95064240  0.74018403     0.39000
C1798       C  0.03962382  0.00874904  0.72477284    -0.04500
C1799       C  0.03766034  0.02405390  0.70934823     0.02600
C1800       C  0.04669657  0.03601645  0.73015091    -0.04100
C1801       C  0.05825243  0.03210643  0.76485970    -0.00300
C1802       C  0.06034091  0.01667199  0.77926321    -0.02900
C1803       C  0.02956170  0.99680534  0.70606010     0.36300
C1804       C  0.06758355  0.04387595  0.78800484     0.40000
C1805       C  0.02609418  0.02727737  0.67239355     0.39100
C1806       C  0.07185811  0.01273072  0.81561330     0.36000
C1807       C  0.06801746  0.98165352  0.70803467     0.36700
C1808       C  0.03408962  0.96591206  0.88158291     0.39900
N1809       N  0.01679388  0.02976842  0.64312543    -0.38100
N1810       N  0.02144994  0.98732737  0.69141506    -0.39700
N1811       N  0.07502301  0.05319809  0.80683014    -0.37500
N1812       N  0.08096900  0.00951961  0.84475618    -0.39800
N1813       N  0.02920403  0.00654142  0.87112767    -0.39600
N1814       N  0.02681932  0.96308946  0.91616367    -0.37200
N1815       N  0.07384504  0.94136726  0.71721847    -0.38300
N1816       N  0.07444588  0.98476531  0.67203297    -0.40000
C1817       C  0.91311293  0.85539487  0.35350135    -0.04900
C1818       C  0.90358080  0.85777836  0.39486048     0.09300
C1819       C  0.90577686  0.87084305  0.42491593    -0.02300
C1820       C  0.91742407  0.88153473  0.41348649    -0.00500
C1821       C  0.92677155  0.87937976  0.37120292    -0.04200
C1822       C  0.92455338  0.86617811  0.34142451     0.02900
C1823       C  0.89139881  0.84628195  0.40705432     0.09700
C1824       C  0.89615058  0.87314450  0.46803421     0.35600
C1825       C  0.93381528  0.86368274  0.29765597     0.39000
C1826       C  0.89372238  0.83563530  0.44538835    -0.04500
C1827       C  0.88243987  0.82452142  0.45617869     0.02600
C1828       C  0.86872043  0.82390899  0.42836133    -0.04100
C1829       C  0.86670346  0.83428577  0.38871802    -0.00300
C1830       C  0.87792625  0.84550132  0.37850873    -0.02900
C1831       C  0.90795319  0.83591535  0.47296642     0.36300
C1832       C  0.85355949  0.83288633  0.35628277     0.40000
C1833       C  0.88506607  0.81376764  0.49603410     0.39100
C1834       C  0.87582236  0.85602027  0.33765854     0.36000
C1835       C  0.91121925  0.84167338  0.32361620     0.36700
C1836       C  0.92026262  0.89426907  0.44685800     0.39900
N1837       N  0.88724438  0.80513027  0.52759986    -0.38100
N1838       N  0.91933314  0.83615282  0.49478982    -0.39700
N1839       N  0.84316289  0.83168215  0.33012293    -0.37500
N1840       N  0.87423199  0.86431199  0.30480003    -0.39800
N1841       N  0.88851173  0.87491137  0.50255297    -0.39600
N1842       N  0.92259004  0.90434016  0.47375774    -0.37200
N1843       N  0.94114720  0.86155692  0.26268928    -0.38300
N1844       N  0.90965685  0.83071988  0.29990199    -0.40000
C1845       C  0.95157526  0.98234066  0.31358839    -0.04900
C1846       C  0.94980342  0.98542000  0.26289089     0.09300
C1847       C  0.94847542  0.97316744  0.22909203    -0.02300
C1848       C  0.94933226  0.95785101  0.24570879    -0.00500
C1849       C  0.95163259  0.95473580  0.29636577    -0.04200
C1850       C  0.95247694  0.96706002  0.33030604     0.02900
C1851       C  0.94965499  0.00165506  0.24510220     0.09700
C1852       C  0.94652740  0.97641023  0.17704867     0.35600
C1853       C  0.95396903  0.96403011  0.38266698     0.39000
C1854       C  0.96325231  0.00844660  0.22754164    -0.04500
C1855       C  0.96339476  0.02402524  0.21353459     0.02600
C1856       C  0.94998665  0.03316973  0.21864979    -0.04100
C1857       C  0.93613810  0.02600091  0.23396043    -0.00300
C1858       C  0.93601697  0.01028568  0.24673922    -0.02900
C1859       C  0.97718312  0.99937096  0.22446107     0.36300
C1860       C  0.92201770  0.03470064  0.23807066     0.40000
C1861       C  0.97736342  0.03041459  0.19282768     0.39100
C1862       C  0.92188007  0.00289273  0.26206695     0.36000
C1863       C  0.95266246  0.99495121  0.34848001     0.36700
C1864       C  0.94854182  0.94538180  0.21021308     0.39900
N1865       N  0.98851308  0.03544247  0.17617866    -0.38100
N1866       N  0.98827251  0.99210995  0.22203088    -0.39700
N1867       N  0.91067157  0.04152200  0.24136804    -0.37500
N1868       N  0.91068033  0.99683072  0.27415222    -0.39800
N1869       N  0.94501518  0.97909698  0.13558135    -0.39600
N1870       N  0.94789130  0.93547056  0.18177252    -0.37200
N1871       N  0.95509209  0.96158623  0.42442434    -0.38300
N1872       N  0.95350280  0.00501128  0.37631357    -0.40000
C1873       C  0.99398556  0.89056875  0.53943456    -0.04900
C1874       C  0.00036242  0.90370756  0.56202470     0.09300
C1875       C  0.99932103  0.91806829  0.53828847    -0.02300
C1876       C  0.99126462  0.91946063  0.49352312    -0.00500
C1877       C  0.98488136  0.90632285  0.47077775    -0.04200
C1878       C  0.98646469  0.89182593  0.49356653     0.02900
C1879       C  0.00773736  0.90271176  0.61175736     0.09700
C1880       C  0.00685321  0.93136378  0.55961465     0.35600
C1881       C  0.97984831  0.87828286  0.47071386     0.39000
C1882       C  0.02320178  0.89829477  0.61620869    -0.04500
C1883       C  0.03060349  0.89899554  0.66245902     0.02600
C1884       C  0.02253033  0.90410777  0.70504924    -0.04100
C1885       C  0.00674737  0.90792693  0.70046329    -0.00300
C1886       C  0.99946713  0.90723558  0.65407084    -0.02900
C1887       C  0.03157873  0.89330592  0.57273225     0.36300
C1888       C  0.99796283  0.91324789  0.74271821     0.40000
C1889       C  0.04655776  0.89440766  0.66565567     0.39100
C1890       C  0.98345974  0.91155872  0.64943581     0.36000
C1891       C  0.99505448  0.87578778  0.56362393     0.36700
C1892       C  0.98983691  0.93440203  0.47045312     0.39900
N1893       N  0.05930594  0.89079535  0.66797578    -0.38100
N1894       N  0.03822102  0.88929022  0.53802045    -0.39700
N1895       N  0.99087765  0.91750272  0.77622424    -0.37500
N1896       N  0.97071598  0.91504060  0.64555583    -0.39800
N1897       N  0.01302552  0.94190263  0.57643985    -0.39600
N1898       N  0.98864551  0.94633540  0.45221048    -0.37200
N1899       N  0.97455672  0.86753444  0.45220235    -0.38300
N1900       N  0.99588956  0.86396318  0.58277367    -0.40000
C1901       C  0.99388709  0.89092560  0.13410425    -0.04900
C1902       C  0.00222057  0.90389246  0.11832603     0.09300
C1903       C  0.00288111  0.91709130  0.14840871    -0.02300
C1904       C  0.99481438  0.91754565  0.19342169    -0.00500
C1905       C  0.98645966  0.90455547  0.20954886    -0.04200
C1906       C  0.98603836  0.89122518  0.17968622     0.02900
C1907       C  0.00951768  0.90413969  0.06848217     0.09700
C1908       C  0.01170222  0.93031738  0.13249430     0.35600
C1909       C  0.97774679  0.87773208  0.19595364     0.39000
C1910       C  0.00070078  0.90824795  0.02706334    -0.04500
C1911       C  0.00770739  0.90966415  0.98040868     0.02600
C1912       C  0.02361173  0.90696011  0.97497941    -0.04100
C1913       C  0.03237422  0.90259458  0.01646712    -0.00300
C1914       C  0.02531893  0.90117729  0.06307491    -0.02900
C1915       C  0.98445632  0.91138669  0.03294827     0.36300
C1916       C  0.04860391  0.89929360  0.01112299     0.40000
C1917       C  0.99865830  0.91469348  0.93864394     0.39100
C1918       C  0.03430545  0.89680220  0.10569840     0.36000
C1919       C  0.99339594  0.87732072  0.10316541     0.36700
C1920       C  0.99429322  0.93178176  0.22138586     0.39900
N1921       N  0.99143279  0.91878347  0.90545974    -0.38100
N1922       N  0.97151090  0.91386939  0.03802131    -0.39700
N1923       N  0.06154942  0.89669104  0.00667998    -0.37500
N1924       N  0.04145280  0.89333274  0.13977409    -0.39800
N1925       N  0.01883128  0.94080713  0.11985284    -0.39600
N1926       N  0.99373485  0.94317780  0.24337547    -0.37200
N1927       N  0.97120326  0.86687399  0.20860750    -0.38300
N1928       N  0.99305102  0.86650637  0.07829806    -0.40000
C1929       C  0.61768922  0.34235759  0.40688328    -0.04900
C1930       C  0.60501057  0.33896444  0.37670435     0.09300
C1931       C  0.60337974  0.32413058  0.35639956    -0.02300
C1932       C  0.61450174  0.31274773  0.36574503    -0.00500
C1933       C  0.62741099  0.31617226  0.39545503    -0.04200
C1934       C  0.62892003  0.33108233  0.41595273     0.02900
C1935       C  0.59322419  0.35101987  0.36684428     0.09700
C1936       C  0.59023813  0.32061597  0.32567006     0.35600
C1937       C  0.64182746  0.33483334  0.44741387     0.39000
C1938       C  0.59561447  0.36194276  0.32923737    -0.04500
C1939       C  0.58430443  0.37308933  0.31928378     0.02600
C1940       C  0.57059264  0.37338711  0.34713003    -0.04100
C1941       C  0.56845301  0.36274732  0.38580572    -0.00300
C1942       C  0.57975220  0.35161431  0.39563648    -0.02900
C1943       C  0.60976551  0.36172341  0.30101478     0.36300
C1944       C  0.55486504  0.36361311  0.41672005     0.40000
C1945       C  0.58656179  0.38390552  0.27933718     0.39100
C1946       C  0.57770385  0.34092519  0.43604025     0.36000
C1947       C  0.61900625  0.35745273  0.42922955     0.36700
C1948       C  0.61285497  0.29770823  0.34315642     0.39900
N1949       N  0.58833177  0.39251745  0.24739858    -0.38100
N1950       N  0.62111011  0.36160039  0.27877592    -0.39700
N1951       N  0.54405740  0.36438587  0.44146781    -0.37500
N1952       N  0.57615373  0.33242565  0.46839392    -0.39800
N1953       N  0.57975138  0.31777655  0.30123693    -0.39600
N1954       N  0.61153267  0.28571856  0.32512941    -0.37200
N1955       N  0.65214201  0.33785979  0.47237198    -0.38300
N1956       N  0.61997543  0.36948759  0.44714402    -0.40000
C1957       C  0.59794348  0.11304679  0.87115966    -0.04900
C1958       C  0.59542290  0.12867183  0.86091255     0.09300
C1959       C  0.58112425  0.13340400  0.84237591    -0.02300
C1960       C  0.56920770  0.12264096  0.83513254    -0.00500
C1961       C  0.57152677  0.10682315  0.84603009    -0.04200
C1962       C  0.58616748  0.10215359  0.86366760     0.02900
C1963       C  0.60764718  0.14031328  0.87165789     0.09700
C1964       C  0.57867542  0.14949137  0.83098681     0.35600
C1965       C  0.58931375  0.08619541  0.87512424     0.39000
C1966       C  0.61887644  0.14386332  0.83592895    -0.04500
C1967       C  0.63010439  0.15515836  0.84581360     0.02600
C1968       C  0.63018511  0.16299031  0.89165515    -0.04100
C1969       C  0.61895903  0.15929112  0.92751374    -0.00300
C1970       C  0.60781623  0.14794129  0.91760111    -0.02900
C1971       C  0.61874904  0.13595923  0.78878588     0.36300
C1972       C  0.61900284  0.16692943  0.97512162     0.40000
C1973       C  0.64109347  0.15922894  0.80778176     0.39100
C1974       C  0.59650648  0.14399186  0.95479729     0.36000
C1975       C  0.61270194  0.10821590  0.89019960     0.36700
C1976       C  0.55461637  0.12812278  0.81654954     0.39900
N1977       N  0.64982338  0.16255251  0.77741071    -0.38100
N1978       N  0.61864178  0.12962225  0.75121841    -0.39700
N1979       N  0.61900611  0.17303245  0.01308920    -0.37500
N1980       N  0.58748496  0.14075409  0.98436782    -0.39800
N1981       N  0.57673663  0.16231278  0.82184463    -0.39600
N1982       N  0.54299265  0.13259000  0.80190605    -0.37200
N1983       N  0.59188196  0.07348099  0.88425396    -0.38300
N1984       N  0.62445859  0.10434536  0.90543273    -0.40000
C1985       C  0.67143663  0.23190881  0.71022189    -0.04900
C1986       C  0.65742723  0.23812016  0.69378484     0.09300
C1987       C  0.64410678  0.23624307  0.72275896    -0.02300
C1988       C  0.64473546  0.22815918  0.76786192    -0.00500
C1989       C  0.65875496  0.22176436  0.78438055    -0.04200
C1990       C  0.67212433  0.22376964  0.75516166     0.02900
C1991       C  0.65663926  0.24642308  0.64536696     0.09700
C1992       C  0.62969180  0.24257005  0.70567256     0.35600
C1993       C  0.68678779  0.21790290  0.77181013     0.39000
C1994       C  0.65150068  0.23868794  0.60275250    -0.04500
C1995       C  0.65114770  0.24628914  0.55680167     0.02600
C1996       C  0.65589482  0.26182074  0.55295284    -0.04100
C1997       C  0.66056215  0.26969417  0.59632952    -0.00300
C1998       C  0.66100448  0.26197930  0.64211265    -0.02900
C1999       C  0.64659562  0.22281219  0.60634693     0.36300
C2000       C  0.66542875  0.28561367  0.59406568     0.40000
C2001       C  0.64557092  0.23809423  0.51378476     0.39100
C2002       C  0.66610516  0.27001020  0.68605259     0.36000
C2003       C  0.68519429  0.23389806  0.68070759     0.36700
C2004       C  0.63077506  0.22607748  0.79624358     0.39900
N2005       N  0.64111990  0.23152099  0.47954571    -0.38100
N2006       N  0.64262362  0.21017269  0.60944659    -0.39700
N2007       N  0.66926585  0.29832565  0.59235233    -0.37500
N2008       N  0.67020989  0.27640285  0.72107850    -0.39800
N2009       N  0.61822980  0.24760113  0.69166149    -0.39600
N2010       N  0.61957967  0.22447810  0.81866278    -0.37200
N2011       N  0.69850319  0.21325326  0.78500417    -0.38300
N2012       N  0.69619923  0.23549532  0.65733362    -0.40000
C2013       C  0.64433997  0.23513316  0.11454689    -0.04900
C2014       C  0.65815840  0.24094067  0.13403464     0.09300
C2015       C  0.67192376  0.23915502  0.10718516    -0.02300
C2016       C  0.67189569  0.23153266  0.06118145    -0.00500
C2017       C  0.65814878  0.22514749  0.04244321    -0.04200
C2018       C  0.64436356  0.22698318  0.06943822     0.02900
C2019       C  0.65832100  0.24843527  0.18385445     0.09700
C2020       C  0.68621115  0.24477352  0.12771927     0.35600
C2021       C  0.63015294  0.22063641  0.05067086     0.39000
C2022       C  0.65860420  0.23932205  0.22677056    -0.04500
C2023       C  0.65912064  0.24628312  0.27380687     0.02600
C2024       C  0.65927532  0.26248132  0.27835008    -0.04100
C2025       C  0.65883664  0.27159108  0.23514878    -0.00300
C2026       C  0.65830114  0.26457212  0.18817440    -0.02900
C2027       C  0.65841077  0.22271829  0.22236424     0.36300
C2028       C  0.65851555  0.28821523  0.23880135     0.40000
C2029       C  0.66012473  0.23669572  0.31734774     0.39100
C2030       C  0.65746928  0.27394379  0.14413437     0.36000
C2031       C  0.63010389  0.23759629  0.14118515     0.36700
C2032       C  0.68621146  0.22965489  0.03436937     0.39900
N2033       N  0.66097389  0.22906214  0.35209436    -0.38100
N2034       N  0.65817695  0.20947862  0.21873339    -0.39700
N2035       N  0.65828265  0.30147429  0.24171077    -0.37500
N2036       N  0.65674656  0.28142464  0.10902180    -0.39800
N2037       N  0.69762399  0.24918330  0.14420005    -0.39600
N2038       N  0.69760927  0.22817880  0.01291479    -0.37200
N2039       N  0.61881476  0.21551681  0.03583668    -0.38300
N2040       N  0.61880450  0.23969861  0.16262465    -0.40000
C2041       C  0.88520918  0.32796922  0.64162014    -0.04900
C2042       C  0.88220019  0.34340831  0.62943154     0.09300
C2043       C  0.86806520  0.34731341  0.60766627    -0.02300
C2044       C  0.85685987  0.33591920  0.59895115    -0.00500
C2045       C  0.85983762  0.32038214  0.61097295    -0.04200
C2046       C  0.87404574  0.31652514  0.63295616     0.02900
C2047       C  0.89400461  0.35560295  0.63880500     0.09700
C2048       C  0.86530183  0.36303845  0.59262620     0.35600
C2049       C  0.87699758  0.30089930  0.64875864     0.39000
C2050       C  0.90598958  0.35797468  0.60463040    -0.04500
C2051       C  0.91700216  0.36957509  0.61297061     0.02600
C2052       C  0.91582612  0.37922940  0.65484599    -0.04100
C2053       C  0.90365941  0.37702475  0.68860033    -0.00300
C2054       C  0.89298942  0.36503038  0.68115654    -0.02900
C2055       C  0.90680858  0.34856432  0.56048701     0.36300
C2056       C  0.90230528  0.38690036  0.73155361     0.40000
C2057       C  0.92922755  0.37192746  0.57740750     0.39100
C2058       C  0.88110439  0.36217788  0.71748460     0.36000
C2059       C  0.89994169  0.32383375  0.66239521     0.36700
C2060       C  0.84241518  0.34023905  0.57650652     0.39900
N2061       N  0.93895089  0.37380764  0.54893264    -0.38100
N2062       N  0.90734184  0.34103540  0.52529427    -0.39700
N2063       N  0.90122832  0.39486006  0.76563434    -0.37500
N2064       N  0.87169285  0.35980948  0.74665777    -0.39800
N2065       N  0.86319268  0.37556378  0.58024801    -0.39600
N2066       N  0.83086275  0.34370720  0.55885271    -0.37200
N2067       N  0.87931077  0.28846109  0.66168051    -0.38300
N2068       N  0.91174868  0.32050048  0.67850383    -0.40000
C2069       C  0.75515643  0.28903329  0.54565274    -0.04900
C2070       C  0.75266233  0.29737325  0.50193203     0.09300
C2071       C  0.76488738  0.30538180  0.47983961    -0.02300
C2072       C  0.77978096  0.30444276  0.49990182    -0.00500
C2073       C  0.78251477  0.29556901  0.54284298    -0.04200
C2074       C  0.76994467  0.28831992  0.56650167     0.02900
C2075       C  0.73722401  0.29706587  0.47807200     0.09700
C2076       C  0.76213132  0.31426913  0.43558182     0.35600
C2077       C  0.77206833  0.28036185  0.61291328     0.39000
C2078       C  0.72610051  0.30819473  0.49020251    -0.04500
C2079       C  0.71094857  0.30669783  0.47255865     0.02600
C2080       C  0.70688939  0.29398594  0.44247238    -0.04100
C2081       C  0.71852307  0.28373670  0.42654322    -0.00300
C2082       C  0.73356622  0.28518805  0.44475338    -0.02900
C2083       C  0.73024587  0.32101550  0.52170613     0.36300
C2084       C  0.71512017  0.27175013  0.39089640     0.40000
C2085       C  0.69953846  0.31794935  0.48721594     0.39100
C2086       C  0.74528439  0.27427575  0.42993312     0.36000
C2087       C  0.74248772  0.28088610  0.56851908     0.36700
C2088       C  0.79231091  0.31209696  0.47470621     0.39900
N2089       N  0.69049466  0.32699320  0.49887133    -0.38100
N2090       N  0.73362352  0.33127210  0.54662864    -0.39700
N2091       N  0.71235227  0.26224096  0.36237668    -0.37500
N2092       N  0.75464279  0.26558681  0.41810254    -0.39800
N2093       N  0.75983701  0.32135658  0.40034038    -0.39600
N2094       N  0.80228145  0.31822567  0.45451941    -0.37200
N2095       N  0.77370707  0.27409277  0.65009746    -0.38300
N2096       N  0.73235590  0.27435437  0.58643855    -0.40000
C2097       C  0.88623871  0.15632936  0.09689159    -0.04900
C2098       C  0.88406117  0.14673986  0.13812016     0.09300
C2099       C  0.87084231  0.14848545  0.16760457    -0.02300
C2100       C  0.85966165  0.15954935  0.15541262    -0.00500
C2101       C  0.86155441  0.16892959  0.11316017    -0.04200
C2102       C  0.87499393  0.16727536  0.08409883     0.02900
C2103       C  0.89578372  0.13482710  0.15082455     0.09700
C2104       C  0.86899218  0.13911618  0.21136933     0.35600
C2105       C  0.87724394  0.17661994  0.04047126     0.39000
C2106       C  0.90741746  0.13818050  0.18516542    -0.04500
C2107       C  0.91854408  0.12702098  0.19689792     0.02600
C2108       C  0.91806639  0.11228479  0.17458073    -0.04100
C2109       C  0.90607777  0.10883674  0.14111119    -0.00300
C2110       C  0.89508015  0.12011625  0.12907835    -0.02900
C2111       C  0.90781455  0.15312543  0.20888313     0.36300
C2112       C  0.90512183  0.09381064  0.11806941     0.40000
C2113       C  0.93015790  0.13062464  0.23336101     0.39100
C2114       C  0.88297738  0.11661591  0.09421244     0.36000
C2115       C  0.90027654  0.15514557  0.06831282     0.36700
C2116       C  0.84662540  0.16174512  0.18804556     0.39900
N2117       N  0.93941311  0.13346599  0.26250021    -0.38100
N2118       N  0.90809317  0.16500704  0.22805933    -0.39700
N2119       N  0.90426402  0.08180686  0.09986484    -0.37500
N2120       N  0.87332138  0.11383428  0.06639779    -0.39800
N2121       N  0.86763123  0.13169968  0.24644952    -0.39600
N2122       N  0.83630143  0.16357114  0.21432345    -0.37200
N2123       N  0.87909165  0.18407878  0.00570084    -0.38300
N2124       N  0.91154380  0.15430196  0.04582795    -0.40000
C2125       C  0.75715356  0.20195681  0.03157815    -0.04900
C2126       C  0.75236982  0.18712083  0.01756021     0.09300
C2127       C  0.76259671  0.17468336  0.02184110    -0.02300
C2128       C  0.77777071  0.17714515  0.03836951    -0.00500
C2129       C  0.78276232  0.19211689  0.05176803    -0.04200
C2130       C  0.77211368  0.20443409  0.04950034     0.02900
C2131       C  0.73637309  0.18483164  0.99885850     0.09700
C2132       C  0.75739459  0.15932659  0.00955527     0.35600
C2133       C  0.77641775  0.21983599  0.06464272     0.39000
C2134       C  0.73353330  0.18425199  0.94771921    -0.04500
C2135       C  0.71834329  0.18477187  0.92991216     0.02600
C2136       C  0.70585806  0.18605685  0.96317365    -0.04100
C2137       C  0.70874977  0.18586438  0.01459024    -0.00300
C2138       C  0.72394233  0.18505245  0.03220840    -0.02900
C2139       C  0.74630673  0.18369412  0.91337787     0.36300
C2140       C  0.69628468  0.18776688  0.04962992     0.40000
C2141       C  0.71562284  0.18408913  0.87721442     0.39100
C2142       C  0.72692561  0.18510474  0.08482955     0.36000
C2143       C  0.74662634  0.21478226  0.02674034     0.36700
C2144       C  0.78803711  0.16411741  0.04261264     0.39900
N2145       N  0.71348949  0.18351566  0.83515205    -0.38100
N2146       N  0.75650281  0.18323077  0.88600899    -0.39700
N2147       N  0.68641064  0.18942264  0.07775091    -0.37500
N2148       N  0.72945163  0.18515925  0.12669959    -0.39800
N2149       N  0.75317462  0.14708939  0.99986726    -0.39600
N2150       N  0.79620585  0.15370162  0.04595662    -0.37200
N2151       N  0.77967763  0.23213352  0.07705231    -0.38300
N2152       N  0.73817238  0.22493847  0.02271464    -0.40000
C2153       C  0.82803343  0.22432594  0.85949969    -0.04900
C2154       C  0.83550024  0.23860182  0.85473531     0.09300
C2155       C  0.84327287  0.24498317  0.89546118    -0.02300
C2156       C  0.84332431  0.23726460  0.94116461    -0.00500
C2157       C  0.83553383  0.22311152  0.94642969    -0.04200
C2158       C  0.82804715  0.21657880  0.90510404     0.02900
C2159       C  0.83445137  0.24731145  0.80738167     0.09700
C2160       C  0.85089070  0.25970291  0.89045333     0.35600
C2161       C  0.81953732  0.20233841  0.91003353     0.39000
C2162       C  0.82207612  0.25738134  0.79951480    -0.04500
C2163       C  0.82084106  0.26553004  0.75480404     0.02600
C2164       C  0.83190510  0.26343828  0.71679179    -0.04100
C2165       C  0.84447593  0.25341240  0.72542725    -0.00300
C2166       C  0.84568838  0.24541969  0.77050007    -0.02900
C2167       C  0.81047049  0.25919368  0.83757004     0.36300
C2168       C  0.85651806  0.25155322  0.68885889     0.40000
C2169       C  0.80799264  0.27590689  0.74838426     0.39100
C2170       C  0.85852690  0.23518910  0.77914259     0.36000
C2171       C  0.81985131  0.21790424  0.81774251     0.36700
C2172       C  0.85154101  0.24384239  0.98258072     0.39900
N2173       N  0.79777829  0.28425596  0.74375438    -0.38100
N2174       N  0.80121187  0.26055981  0.86791780    -0.39700
N2175       N  0.86616276  0.25004326  0.65983963    -0.37500
N2176       N  0.86875973  0.22703368  0.78615599    -0.39800
N2177       N  0.85690291  0.27147580  0.88627811    -0.39600
N2178       N  0.85811620  0.24908508  0.01559326    -0.37200
N2179       N  0.81270266  0.19101449  0.91401826    -0.38300
N2180       N  0.81327254  0.21285693  0.78443186    -0.40000
C2181       C  0.82177014  0.24756688  0.38562600    -0.04900
C2182       C  0.83431682  0.25003395  0.35368353     0.09300
C2183       C  0.84657206  0.25947330  0.36909849    -0.02300
C2184       C  0.84622721  0.26652155  0.41610152    -0.00500
C2185       C  0.83363202  0.26409597  0.44809244    -0.04200
C2186       C  0.82137654  0.25460403  0.43250465     0.02900
C2187       C  0.83462989  0.24245592  0.30399236     0.09700
C2188       C  0.85956977  0.26184511  0.33654825     0.35600
C2189       C  0.80798808  0.25258414  0.46377712     0.39000
C2190       C  0.82643119  0.24885397  0.26421578    -0.04500
C2191       C  0.82608545  0.24126490  0.21811305     0.02600
C2192       C  0.83355765  0.22697264  0.21197459    -0.04100
C2193       C  0.84203010  0.22076364  0.25158020    -0.00300
C2194       C  0.84263548  0.22853514  0.29727453    -0.02900
C2195       C  0.81800438  0.26305063  0.27127377     0.36300
C2196       C  0.85045780  0.20654339  0.24502910     0.40000
C2197       C  0.81754199  0.24791036  0.17761903     0.39100
C2198       C  0.85132420  0.22211808  0.33781320     0.36000
C2199       C  0.80922292  0.23775398  0.37010683     0.36700
C2200       C  0.85902522  0.27594036  0.43193766     0.39900
N2201       N  0.81076997  0.25323993  0.14527279    -0.38100
N2202       N  0.81118738  0.27431262  0.27711704    -0.39700
N2203       N  0.85725146  0.19523886  0.23983802    -0.37500
N2204       N  0.85827753  0.21708144  0.37023761    -0.39800
N2205       N  0.86996120  0.26367682  0.31059093    -0.39600
N2206       N  0.86925069  0.28343741  0.44457559    -0.37200
N2207       N  0.79731550  0.25105200  0.48875358    -0.38300
N2208       N  0.79921451  0.22992983  0.35773319    -0.40000
loop_ 
_geom_bond_atom_site_label_1 
_geom_bond_atom_site_label_2 
_geom_bond_distance 
_geom_bond_site_symmetry_2 
_ccdc_geom_bond_type 
In1           O3   2.245       .  S
In1           O4   2.257       .  S
In1          O12   2.249       .  S
In1           O6   2.245       .  S
In1           O8   2.260       .  S
In1           O9   2.248       .  S
In1          O10   2.253       .  S
In1          O13   2.248       .  S
C2            O8   1.258       .  A
C2           O10   1.258       .  A
C2         C2129   1.500       .  S
O3           C11   1.261       .  A
O4           C11   1.262       .  A
C5           O12   1.262       .  A
C5            O6   1.262       .  A
C5         C2101   1.494       .  S
C7            O9   1.260   1_556  A
C7           O13   1.260   1_556  A
C7         C2157   1.488       .  S
C11        C2192   1.487       .  S
In14         O16   2.257       .  S
In14         O17   2.241       .  S
In14         O25   2.246       .  S
In14         O19   2.247       .  S
In14         O21   2.255       .  S
In14         O22   2.247       .  S
In14         O23   2.247       .  S
In14         O26   2.246       .  S
C15          O21   1.261       .  A
C15          O23   1.260       .  A
C15        C2073   1.496       .  S
O16          C24   1.261       .  A
O17          C24   1.260       .  A
C18          O25   1.263       .  A
C18          O19   1.262       .  A
C18        C2045   1.494       .  S
C20          O22   1.261       .  A
C20          O26   1.261       .  A
C20        C2164   1.500       .  S
C24        C2185   1.488       .  S
In27         O29   2.247       .  S
In27         O30   2.262       .  S
In27         O38   2.250       .  S
In27         O32   2.260       .  S
In27         O34   2.261       .  S
In27         O35   2.247       .  S
In27         O36   2.247       .  S
In27         O39   2.253       .  S
C28          O34   1.261       .  A
C28          O36   1.259       .  A
C28        C2136   1.492       .  S
O29          C37   1.261       .  A
O30          C37   1.262       .  A
C31          O38   1.260       .  A
C31          O32   1.262       .  A
C31        C1968   1.492       .  S
C33          O35   1.261       .  A
C33          O39   1.261       .  A
C33        C2017   1.489   1_556  S
C37        C1989   1.498       .  S
In40         O42   2.257       .  S
In40         O43   2.252       .  S
In40         O51   2.246       .  S
In40         O45   2.236       .  S
In40         O47   2.255       .  S
In40         O48   2.254       .  S
In40         O49   2.227       .  S
In40         O52   2.247       .  S
C41          O47   1.262       .  A
C41          O49   1.260       .  A
C41        C2080   1.492       .  S
O42          C50   1.261       .  A
O43          C50   1.261       .  A
C44          O51   1.262       .  A
C44          O45   1.261       .  A
C44        C1933   1.490       .  S
C46          O48   1.261       .  A
C46          O52   1.259       .  A
C46        C2024   1.491       .  S
C50        C1996   1.499       .  S
In53         O55   2.243       .  S
In53         O56   2.244       .  S
In53         O64   2.235       .  S
In53         O58   2.253       .  S
In53         O60   2.255       .  S
In53         O61   2.235       .  S
In53         O62   2.232       .  S
In53         O65   2.253       .  S
C54          O60   1.262       .  A
C54          O62   1.259       .  A
C54        C1849   1.485       .  S
O55          C63   1.261       .  A
O56          C63   1.262       .  A
C57          O64   1.260       .  A
C57          O58   1.262       .  A
C57        C1821   1.490       .  S
C59          O61   1.260       .  A
C59          O65   1.260       .  A
C59        C1905   1.483       .  S
C63        C1877   1.485       .  S
In66         O68   2.253       .  S
In66         O69   2.247       .  S
In66         O77   2.238       .  S
In66         O71   2.267       .  S
In66         O73   2.244       .  S
In66         O74   2.240       .  S
In66         O75   2.247       .  S
In66         O78   2.239       .  S
C67          O73   1.262       .  A
C67          O75   1.260       .  A
C67        C1793   1.493       .  S
O68          C76   1.261       .  A
O69          C76   1.260       .  A
C70          O77   1.259       .  A
C70          O71   1.261       .  A
C70        C1765   1.493       .  S
C72          O74   1.261       .  A
C72          O78   1.262       .  A
C72        C1912   1.483       .  S
C76        C1884   1.502       .  S
In79         O81   2.243       .  S
In79         O82   2.244       .  S
In79         O90   2.240       .  S
In79         O84   2.258       .  S
In79         O86   2.263       .  S
In79         O87   2.239       .  S
In79         O88   2.233       .  S
In79         O91   2.248       .  S
C80          O86   1.263       .  A
C80          O88   1.260       .  A
C80        C1856   1.499       .  S
O81          C89   1.259       .  A
O82          C89   1.259       .  A
C83          O90   1.259       .  A
C83          O84   1.261       .  A
C83        C2108   1.494       .  S
C85          O87   1.260       .  A
C85          O91   1.263       .  A
C85        C1744   1.491       .  S
C89        C1709   1.482       .  S
In92         O94   2.264       .  S
In92         O95   2.243       .  S
In92        O103   2.239       .  S
In92         O97   2.240       .  S
In92         O99   2.259       .  S
In92        O100   2.248       .  S
In92        O101   2.231       .  S
In92        O104   2.253       .  S
C93          O99   1.260       .  A
C93         O101   1.258       .  A
C93        C1800   1.500       .  S
O94         C102   1.260       .  A
O95         C102   1.259       .  A
C96         O103   1.262       .  A
C96          O97   1.262       .  A
C96        C1688   1.492       .  S
C98         O100   1.261       .  A
C98         O104   1.261       .  A
C98        C1737   1.501       .  S
C102       C1716   1.500       .  S
In105       O107   2.264       .  S
In105       O108   2.243       .  S
In105       O116   2.244       .  S
In105       O110   2.258       .  S
In105       O112   2.259       .  S
In105       O113   2.237       .  S
In105       O114   2.240       .  S
In105       O117   2.253       .  S
C106        O112   1.263       .  A
C106        O114   1.259       .  A
C106       C1597   1.495       .  S
O107        C115   1.260       .  A
O108        C115   1.258       .  A
C109        O116   1.261       .  A
C109        O110   1.263       .  A
C109       C2052   1.487       .  S
C111        O113   1.261       .  A
C111        O117   1.262       .  A
C111       C1625   1.494       .  S
C115       C1653   1.490       .  S
In118       O120   2.242       .  S
In118       O121   2.237       .  S
In118       O129   2.241       .  S
In118       O123   2.249       .  S
In118       O125   2.257       .  S
In118       O126   2.249       .  S
In118       O127   2.239       .  S
In118       O130   2.245       .  S
C119        O125   1.260       .  A
C119        O127   1.259       .  A
C119       C1569   1.489       .  S
O120        C128   1.262       .  A
O121        C128   1.261       .  A
C122        O129   1.261       .  A
C122        O123   1.262       .  A
C122       C1548   1.488       .  S
C124        O126   1.259       .  A
C124        O130   1.260       .  A
C124       C1632   1.492       .  S
C128       C1660   1.481       .  S
In131       O133   2.232       .  S
In131       O134   2.249       .  S
In131       O142   2.244       .  S
In131       O136   2.236       .  S
In131       O138   2.245       .  S
In131       O139   2.250       .  S
In131       O140   2.234       .  S
In131       O143   2.241       .  S
C132        O138   1.261       .  A
C132        O140   1.260       .  A
C132       C1604   1.491       .  S
O133        C141   1.260       .  A
O134        C141   1.262       .  A
C135        O142   1.262       .  A
C135        O136   1.261       .  A
C135       C1457   1.489       .  S
C137        O139   1.261       .  A
C137        O143   1.259       .  A
C137       C1485   1.486       .  S
C141       C1513   1.485       .  S
In144       O146   2.226       .  S
In144       O147   2.257       .  S
In144       O155   2.237       .  S
In144       O149   2.251       .  S
In144       O151   2.250       .  S
In144       O152   2.241       .  S
In144       O153   2.233       .  S
In144       O156   2.241       .  S
C145        O151   1.261       .  A
C145        O153   1.259       .  A
C145       C1576   1.484       .  S
O146        C154   1.261       .  A
O147        C154   1.263       .  A
C148        O155   1.260       .  A
C148        O149   1.261       .  A
C148       C1436   1.490       .  S
C150        O152   1.261       .  A
C150        O156   1.260       .  A
C150       C1492   1.488       .  S
C154       C1520   1.490       .  S
In157       O159   2.242       .  S
In157       O160   2.243       .  S
In157       O168   2.248       .  S
In157       O162   2.243       .  S
In157       O164   2.251       .  S
In157       O165   2.248       .  S
In157       O166   2.236       .  S
In157       O169   2.247       .  S
C158        O164   1.261       .  A
C158        O166   1.260       .  A
C158       C1352   1.493       .  S
O159        C167   1.261       .  A
O160        C167   1.261       .  A
C161        O168   1.260       .  A
C161        O162   1.259       .  A
C161       C1828   1.491       .  S
C163        O165   1.260       .  A
C163        O169   1.260       .  A
C163       C1380   1.484       .  S
C167       C1408   1.492       .  S
In170       O172   2.252   1_556  S
In170       O173   2.240   1_556  S
In170       O181   2.246       .  S
In170       O175   2.247       .  S
In170       O177   2.248       .  S
In170       O178   2.246       .  S
In170       O179   2.240       .  S
In170       O182   2.238       .  S
C171        O177   1.261       .  A
C171        O179   1.261       .  A
C171       C1317   1.488       .  S
O172        C180   1.259       .  A
O173        C180   1.258       .  A
C174        O181   1.261       .  A
C174        O175   1.261       .  A
C174       C1464   1.486       .  S
C176        O178   1.261       .  A
C176        O182   1.261       .  A
C176       C1373   1.493       .  S
C180       C1401   1.488       .  S
In183       O185   2.239       .  S
In183       O186   2.249       .  S
In183       O194   2.254       .  S
In183       O188   2.241       .  S
In183       O190   2.249       .  S
In183       O191   2.244       .  S
In183       O192   2.244       .  S
In183       O195   2.255       .  S
C184        O190   1.260       .  A
C184        O192   1.260       .  A
C184       C1345   1.497       .  S
O185        C193   1.261       .  A
O186        C193   1.261       .  A
C187        O194   1.262       .  A
C187        O188   1.260       .  A
C187       C1233   1.502       .  S
C189        O191   1.259       .  A
C189        O195   1.260       .  A
C189       C1261   1.490       .  S
C193       C1289   1.498       .  S
In196       O198   2.249   1_554  S
In196       O199   2.252       .  S
In196       O207   2.246       .  S
In196       O201   2.241       .  S
In196       O203   2.251       .  S
In196       O204   2.256       .  S
In196       O205   2.233       .  S
In196       O208   2.243       .  S
C197        O203   1.261       .  A
C197        O205   1.259       .  A
C197       C1324   1.492       .  S
O198        C206   1.260       .  A
O199        C206   1.261   1_554  A
C200        O207   1.262       .  A
C200        O201   1.260       .  A
C200       C1212   1.487       .  S
C202        O204   1.262       .  A
C202        O208   1.260       .  A
C202       C1268   1.497       .  S
C206       C1296   1.499       .  S
In209       O211   2.241   1_554  S
In209       O212   2.243       .  S
In209       O220   2.251       .  S
In209       O214   2.249       .  S
In209       O216   2.249       .  S
In209       O217   2.240       .  S
In209       O218   2.231       .  S
In209       O221   2.233       .  S
C210        O216   1.262       .  A
C210        O218   1.259       .  A
C210       C1121   1.498       .  S
O211        C219   1.261       .  A
O212        C219   1.259   1_554  A
C213        O220   1.262       .  A
C213        O214   1.262       .  A
C213       C1093   1.500       .  S
C215        O217   1.262       .  A
C215        O221   1.261       .  A
C215       C1177   1.492       .  S
C219       C1149   1.485       .  S
In222       O224   2.248       .  S
In222       O225   2.252       .  S
In222       O233   2.250       .  S
In222       O227   2.234       .  S
In222       O229   2.242       .  S
In222       O230   2.256       .  S
In222       O231   2.243       .  S
In222       O234   2.239       .  S
C223        O229   1.260       .  A
C223        O231   1.262       .  A
C223       C1065   1.490       .  S
O224        C232   1.260       .  A
O225        C232   1.261       .  A
C226        O233   1.260       .  A
C226        O227   1.258       .  A
C226       C1037   1.489       .  S
C228        O230   1.261       .  A
C228        O234   1.259       .  A
C228       C1184   1.484       .  S
C232       C1156   1.491       .  S
In235       O237   2.246   1_556  S
In235       O238   2.254       .  S
In235       O246   2.248       .  S
In235       O240   2.251       .  S
In235       O242   2.254       .  S
In235       O243   2.241       .  S
In235       O244   2.252       .  S
In235       O247   2.250       .  S
C236        O242   1.261       .  A
C236        O244   1.260       .  A
C236       C1128   1.496       .  S
O237        C245   1.259       .  A
O238        C245   1.260   1_556  A
C239        O246   1.261       .  A
C239        O240   1.261       .  A
C239       C1772   1.486       .  S
C241        O243   1.261       .  A
C241        O247   1.262       .  A
C241       C1009   1.494       .  S
C245        C981   1.498       .  S
In248       O250   2.242       .  S
In248       O251   2.248       .  S
In248       O259   2.241       .  S
In248       O253   2.239       .  S
In248       O255   2.253       .  S
In248       O256   2.243       .  S
In248       O257   2.231       .  S
In248       O260   2.237       .  S
C249        O255   1.261       .  A
C249        O257   1.260       .  A
C249       C1072   1.489       .  S
O250        C258   1.260       .  A
O251        C258   1.260       .  A
C252        O259   1.260       .  A
C252        O253   1.261       .  A
C252       C1429   1.483       .  S
C254        O256   1.261       .  A
C254        O260   1.260       .  A
C254       C1016   1.491       .  S
C258        C988   1.484       .  S
In261       O263   2.266       .  S
In261       O264   2.248       .  S
In261       O272   2.239       .  S
In261       O266   2.259       .  S
In261       O268   2.258       .  S
In261       O269   2.246       .  S
In261       O270   2.241       .  S
In261       O273   2.252       .  S
C262        O268   1.262       .  A
C262        O270   1.260       .  A
C262        C897   1.495       .  S
O263        C271   1.260       .  A
O264        C271   1.259       .  A
C265        O272   1.260       .  A
C265        O266   1.262       .  A
C265        C876   1.485       .  S
C267        O269   1.263       .  A
C267        O273   1.263       .  A
C267        C960   1.499       .  S
C271        C925   1.492       .  S
In274       O276   2.253       .  S
In274       O277   2.249       .  S
In274       O285   2.242       .  S
In274       O279   2.245       .  S
In274       O281   2.250       .  S
In274       O282   2.246       .  S
In274       O283   2.247       .  S
In274       O286   2.266   1_556  S
C275        O281   1.261       .  A
C275        O283   1.260       .  A
C275        C841   1.492       .  S
O276        C284   1.261       .  A
O277        C284   1.262       .  A
C278        O285   1.263       .  A
C278        O279   1.262       .  A
C278        C813   1.497       .  S
C280        O282   1.259   1_554  A
C280        O286   1.261       .  A
C280        C953   1.487       .  S
C284        C932   1.491       .  S
In287       O289   2.244       .  S
In287       O290   2.250       .  S
In287       O298   2.257       .  S
In287       O292   2.253       .  S
In287       O294   2.258       .  S
In287       O295   2.254       .  S
In287       O296   2.241       .  S
In287       O299   2.245       .  S
C288        O294   1.263       .  A
C288        O296   1.260       .  A
C288        C904   1.506       .  S
O289        C297   1.262       .  A
O290        C297   1.263       .  A
C291        O298   1.260       .  A
C291        O292   1.259       .  A
C291       C1681   1.481       .  S
C293        O295   1.262       .  A
C293        O299   1.260       .  A
C293        C785   1.496       .  S
C297        C764   1.493       .  S
In300       O302   2.247       .  S
In300       O303   2.247       .  S
In300       O311   2.244       .  S
In300       O305   2.252       .  S
In300       O307   2.266       .  S
In300       O308   2.240       .  S
In300       O309   2.240       .  S
In300       O312   2.251       .  S
C301        O307   1.262       .  A
C301        O309   1.258       .  A
C301        C848   1.498       .  S
O302        C310   1.262       .  A
O303        C310   1.261       .  A
C304        O311   1.261       .  A
C304        O305   1.262       .  A
C304       C1541   1.491       .  S
C306        O308   1.260       .  A
C306        O312   1.261       .  A
C306        C792   1.499   1_554  S
C310        C757   1.498       .  S
In313       O315   2.236       .  S
In313       O316   2.248       .  S
In313       O324   2.255       .  S
In313       O318   2.237       .  S
In313       O320   2.244       .  S
In313       O321   2.255       .  S
In313       O322   2.246       .  S
In313       O325   2.233       .  S
C314        O320   1.261       .  A
C314        O322   1.261       .  A
C314        C673   1.494       .  S
O315        C323   1.260       .  A
O316        C323   1.262       .  A
C317        O324   1.262       .  A
C317        O318   1.259       .  A
C317       C1205   1.490       .  S
C319        O321   1.262       .  A
C319        O325   1.259       .  A
C319        C729   1.490       .  S
C323        C701   1.484       .  S
In326       O328   2.247       .  S
In326       O329   2.243       .  S
In326       O337   2.245       .  S
In326       O331   2.238       .  S
In326       O333   2.255       .  S
In326       O334   2.244       .  S
In326       O335   2.235       .  S
In326       O338   2.241       .  S
C327        O333   1.263       .  A
C327        O335   1.261       .  A
C327        C652   1.495       .  S
O328        C336   1.260       .  A
O329        C336   1.260       .  A
C330        O337   1.260       .  A
C330        O331   1.261       .  A
C330       C1044   1.493       .  S
C332        O334   1.260       .  A
C332        O338   1.260       .  A
C332        C736   1.491       .  S
C336        C708   1.493       .  S
In339       O341   2.252       .  S
In339       O342   2.250       .  S
In339       O350   2.238       .  S
In339       O344   2.253       .  S
In339       O346   2.253       .  S
In339       O347   2.243       .  S
In339       O348   2.237       .  S
In339       O351   2.244       .  S
C340        O346   1.262       .  A
C340        O348   1.261       .  A
C340        C680   1.491       .  S
O341        C349   1.259       .  A
O342        C349   1.258       .  A
C343        O350   1.259       .  A
C343        O344   1.261       .  A
C343       C1940   1.482       .  S
C345        O347   1.261       .  A
C345        O351   1.261       .  A
C345        C617   1.499       .  S
C349        C589   1.494       .  S
In352       O354   2.240       .  S
In352       O355   2.257       .  S
In352       O363   2.258       .  S
In352       O357   2.252       .  S
In352       O359   2.257       .  S
In352       O360   2.249       .  S
In352       O361   2.242       .  S
In352       O364   2.250       .  S
C353        O359   1.262       .  A
C353        O361   1.261       .  A
C353        C645   1.496       .  S
O354        C362   1.260       .  A
O355        C362   1.261       .  A
C356        O363   1.261       .  A
C356        O357   1.259       .  A
C356        C820   1.493       .  S
C358        O360   1.261       .  A
C358        O364   1.262       .  A
C358        C624   1.490       .  S
C362        C596   1.500       .  S
In365       O367   2.255       .  S
In365       O368   2.250       .  S
In365       O376   2.256       .  S
In365       O370   2.246       .  S
In365       O372   2.252       .  S
In365       O373   2.251       .  S
In365       O374   2.237       .  S
In365       O377   2.248       .  S
C366        O372   1.262       .  A
C366        O374   1.260       .  A
C366        C505   1.498       .  S
O367        C375   1.260       .  A
O368        C375   1.261       .  A
C369        O376   1.261       .  A
C369        O370   1.260       .  A
C369       C1240   1.493       .  S
C371        O373   1.262       .  A
C371        O377   1.261       .  A
C371        C561   1.493       .  S
C375        C533   1.498       .  S
In378       O380   2.259       .  S
In378       O381   2.246       .  S
In378       O389   2.251       .  S
In378       O383   2.240       .  S
In378       O385   2.256       .  S
In378       O386   2.248       .  S
In378       O387   2.239       .  S
In378       O390   2.250       .  S
C379        O385   1.260       .  A
C379        O387   1.259       .  A
C379        C484   1.494       .  S
O380        C388   1.261       .  A
O381        C388   1.260       .  A
C382        O389   1.262       .  A
C382        O383   1.261       .  A
C382       C1100   1.492       .  S
C384        O386   1.261       .  A
C384        O390   1.261       .  A
C384        C568   1.498       .  S
C388        C540   1.496       .  S
In391       O393   2.243       .  S
In391       O394   2.266       .  S
In391       O402   2.255       .  S
In391       O396   2.245       .  S
In391       O398   2.246       .  S
In391       O399   2.250       .  S
In391       O400   2.251       .  S
In391       O403   2.242       .  S
C392        O398   1.261       .  A
C392        O400   1.262       .  A
C392        C477   1.492       .  S
O393        C401   1.260       .  A
O394        C401   1.261       .  A
C395        O402   1.261       .  A
C395        O396   1.259       .  A
C395        C869   1.490       .  S
C397        O399   1.261       .  A
C397        O403   1.259       .  A
C397        C449   1.486       .  S
C401        C428   1.487       .  S
In404       O406   2.241       .  S
In404       O407   2.248       .  S
In404       O415   2.245       .  S
In404       O409   2.239       .  S
In404       O411   2.246       .  S
In404       O412   2.243       .  S
In404       O413   2.242       .  S
In404       O416   2.244       .  S
C405        O411   1.260       .  A
C405        O413   1.260       .  A
C405        C512   1.490       .  S
O406        C414   1.262       .  A
O407        C414   1.262       .  A
C408        O415   1.261       .  A
C408        O409   1.261       .  A
C408       C1961   1.507       .  S
C410        O412   1.259       .  A
C410        O416   1.259       .  A
C410        C456   1.485       .  S
C414        C421   1.493       .  S
C417        C418   1.411       .  A
C417        C422   1.412   1_554  A
C417        C435   1.451       .  S
C418        C423   1.499       .  S
C418        C419   1.410       .  A
C419        C420   1.412       .  A
C419        C424   1.450       .  S
C420        C421   1.417   1_554  A
C420        C436   1.451       .  S
C421        C422   1.418       .  A
C422        C425   1.451       .  S
C423        C426   1.410       .  A
C423        C430   1.412       .  A
C424        N441   1.157       .  T
C425        N443   1.157       .  T
C426        C427   1.409       .  A
C426        C431   1.451       .  S
C427        C428   1.415       .  A
C427        C433   1.452       .  S
C428        C429   1.414       .  A
C429        C430   1.416       .  A
C429        C432   1.450       .  S
C430        C434   1.450       .  S
C431        N438   1.157       .  T
C432        N439   1.157       .  T
C433        N437   1.157       .  T
C434        N440   1.157       .  T
C435        N444   1.157       .  T
C436        N442   1.157       .  T
C445        C446   1.409       .  A
C445        C450   1.410       .  A
C445        C463   1.451       .  S
C446        C451   1.493       .  S
C446        C447   1.409       .  A
C447        C448   1.410       .  A
C447        C452   1.451       .  S
C448        C449   1.417       .  A
C448        C464   1.451       .  S
C449        C450   1.415       .  A
C450        C453   1.451       .  S
C451        C454   1.409       .  A
C451        C458   1.409       .  A
C452        N469   1.157       .  T
C453        N471   1.157       .  T
C454        C455   1.410       .  A
C454        C459   1.450       .  S
C455        C456   1.415       .  A
C455        C461   1.451       .  S
C456        C457   1.417       .  A
C457        C458   1.409       .  A
C457        C460   1.452       .  S
C458        C462   1.451       .  S
C459        N466   1.157       .  T
C460        N467   1.157       .  T
C461        N465   1.157       .  T
C462        N468   1.157       .  T
C463        N472   1.157       .  T
C464        N470   1.157       .  T
C473        C474   1.410   1_545  A
C473        C478   1.412       .  A
C473        C491   1.451   1_545  S
C474        C479   1.497       .  S
C474        C475   1.409   1_565  A
C475        C476   1.411       .  A
C475        C480   1.451       .  S
C476        C477   1.418       .  A
C476        C492   1.451       .  S
C477        C478   1.417       .  A
C478        C481   1.451       .  S
C479        C482   1.409       .  A
C479        C486   1.409       .  A
C480        N497   1.157       .  T
C481        N499   1.157       .  T
C482        C483   1.413       .  A
C482        C487   1.451       .  S
C483        C484   1.420       .  A
C483        C489   1.451       .  S
C484        C485   1.418       .  A
C485        C486   1.409       .  A
C485        C488   1.451       .  S
C486        C490   1.452       .  S
C487        N494   1.157       .  T
C488        N495   1.157       .  T
C489        N493   1.157       .  T
C490        N496   1.157       .  T
C491        N500   1.157       .  T
C492        N498   1.157       .  T
C501        C502   1.409       .  A
C501        C506   1.413       .  A
C501        C519   1.451       .  S
C502        C507   1.499       .  S
C502        C503   1.410       .  A
C503        C504   1.410       .  A
C503        C508   1.453       .  S
C504        C505   1.420       .  A
C504        C520   1.452       .  S
C505        C506   1.422       .  A
C506        C509   1.451       .  S
C507        C510   1.411   1_565  A
C507        C514   1.412   1_565  A
C508        N525   1.157       .  T
C509        N527   1.157       .  T
C510        C511   1.410       .  A
C510        C515   1.452       .  S
C511        C512   1.418       .  A
C511        C517   1.451       .  S
C512        C513   1.416       .  A
C513        C514   1.411       .  A
C513        C516   1.452       .  S
C514        C518   1.451   1_545  S
C515        N522   1.157       .  T
C516        N523   1.157       .  T
C517        N521   1.158       .  T
C518        N524   1.157       .  T
C519        N528   1.157       .  T
C520        N526   1.157       .  T
C529        C530   1.408       .  A
C529        C534   1.413       .  A
C529        C547   1.450       .  S
C530        C535   1.499       .  S
C530        C531   1.410       .  A
C531        C532   1.413       .  A
C531        C536   1.452       .  S
C532        C533   1.420       .  A
C532        C548   1.451       .  S
C533        C534   1.420       .  A
C534        C537   1.451       .  S
C535        C538   1.410       .  A
C535        C542   1.409       .  A
C536        N553   1.157       .  T
C537        N555   1.157       .  T
C538        C539   1.413       .  A
C538        C543   1.451       .  S
C539        C540   1.419       .  A
C539        C545   1.450       .  S
C540        C541   1.418       .  A
C541        C542   1.412       .  A
C541        C544   1.451       .  S
C542        C546   1.450       .  S
C543        N550   1.157       .  T
C544        N551   1.157       .  T
C545        N549   1.157       .  T
C546        N552   1.157       .  T
C547        N556   1.157       .  T
C548        N554   1.157       .  T
C557        C558   1.410       .  A
C557        C562   1.411       .  A
C557        C575   1.451       .  S
C558        C563   1.500       .  S
C558        C559   1.411       .  A
C559        C560   1.414       .  A
C559        C564   1.450       .  S
C560        C561   1.417       .  A
C560        C576   1.451       .  S
C561        C562   1.418       .  A
C562        C565   1.451       .  S
C563        C566   1.410       .  A
C563        C570   1.409   1_556  A
C564        N581   1.157       .  T
C565        N583   1.157       .  T
C566        C567   1.412   1_556  A
C566        C571   1.452       .  S
C567        C568   1.420       .  A
C567        C573   1.451       .  S
C568        C569   1.420       .  A
C569        C570   1.413       .  A
C569        C572   1.451       .  S
C570        C574   1.450   1_554  S
C571        N578   1.157       .  T
C572        N579   1.157       .  T
C573        N577   1.158       .  T
C574        N580   1.157       .  T
C575        N584   1.157       .  T
C576        N582   1.158       .  T
C585        C586   1.409       .  A
C585        C590   1.410       .  A
C585        C603   1.451       .  S
C586        C591   1.498       .  S
C586        C587   1.410       .  A
C587        C588   1.412       .  A
C587        C592   1.451       .  S
C588        C589   1.419       .  A
C588        C604   1.450       .  S
C589        C590   1.419       .  A
C590        C593   1.451       .  S
C591        C594   1.409       .  A
C591        C598   1.409       .  A
C592        N609   1.157       .  T
C593        N611   1.157       .  T
C594        C595   1.413   1_554  A
C594        C599   1.452       .  S
C595        C596   1.422       .  A
C595        C601   1.451       .  S
C596        C597   1.421       .  A
C597        C598   1.411   1_556  A
C597        C600   1.452       .  S
C598        C602   1.452       .  S
C599        N606   1.157       .  T
C600        N607   1.157       .  T
C601        N605   1.158       .  T
C602        N608   1.157       .  T
C603        N612   1.157       .  T
C604        N610   1.157       .  T
C613        C614   1.409       .  A
C613        C618   1.412       .  A
C613        C631   1.451       .  S
C614        C619   1.499       .  S
C614        C615   1.408       .  A
C615        C616   1.412       .  A
C615        C620   1.451       .  S
C616        C617   1.421       .  A
C616        C632   1.451       .  S
C617        C618   1.421       .  A
C618        C621   1.451       .  S
C619        C622   1.411       .  A
C619        C626   1.410       .  A
C620        N637   1.157       .  T
C621        N639   1.158       .  T
C622        C623   1.411       .  A
C622        C627   1.451       .  S
C623        C624   1.416       .  A
C623        C629   1.451       .  S
C624        C625   1.415       .  A
C625        C626   1.413       .  A
C625        C628   1.450       .  S
C626        C630   1.450       .  S
C627        N634   1.158       .  T
C628        N635   1.158       .  T
C629        N633   1.157       .  T
C630        N636   1.157       .  T
C631        N640   1.157       .  T
C632        N638   1.157       .  T
C641        C642   1.409       .  A
C641        C646   1.411       .  A
C641        C659   1.451       .  S
C642        C647   1.498       .  S
C642        C643   1.409       .  A
C643        C644   1.413       .  A
C643        C648   1.451       .  S
C644        C645   1.420       .  A
C644        C660   1.451       .  S
C645        C646   1.418       .  A
C646        C649   1.451       .  S
C647        C650   1.410       .  A
C647        C654   1.409       .  A
C648        N665   1.157       .  T
C649        N667   1.157       .  T
C650        C651   1.411       .  A
C650        C655   1.451       .  S
C651        C652   1.418       .  A
C651        C657   1.452       .  S
C652        C653   1.419       .  A
C653        C654   1.413       .  A
C653        C656   1.450       .  S
C654        C658   1.451       .  S
C655        N662   1.157       .  T
C656        N663   1.157       .  T
C657        N661   1.158       .  T
C658        N664   1.157       .  T
C659        N668   1.157       .  T
C660        N666   1.157       .  T
C669        C670   1.408       .  A
C669        C674   1.411       .  A
C669        C687   1.451       .  S
C670        C675   1.496       .  S
C670        C671   1.410       .  A
C671        C672   1.411       .  A
C671        C676   1.451       .  S
C672        C673   1.418       .  A
C672        C688   1.452       .  S
C673        C674   1.420       .  A
C674        C677   1.451       .  S
C675        C678   1.410       .  A
C675        C682   1.409       .  A
C676        N693   1.157       .  T
C677        N695   1.158       .  T
C678        C679   1.411       .  A
C678        C683   1.451       .  S
C679        C680   1.417       .  A
C679        C685   1.452       .  S
C680        C681   1.417       .  A
C681        C682   1.411       .  A
C681        C684   1.450       .  S
C682        C686   1.451       .  S
C683        N690   1.157       .  T
C684        N691   1.157       .  T
C685        N689   1.157       .  T
C686        N692   1.157       .  T
C687        N696   1.157       .  T
C688        N694   1.157       .  T
C697        C698   1.410       .  A
C697        C702   1.411       .  A
C697        C715   1.450       .  S
C698        C703   1.493       .  S
C698        C699   1.408       .  A
C699        C700   1.408       .  A
C699        C704   1.451       .  S
C700        C701   1.416       .  A
C700        C716   1.451       .  S
C701        C702   1.413       .  A
C702        C705   1.450       .  S
C703        C706   1.409       .  A
C703        C710   1.407       .  A
C704        N721   1.157       .  T
C705        N723   1.157       .  T
C706        C707   1.410       .  A
C706        C711   1.452       .  S
C707        C708   1.419       .  A
C707        C713   1.451       .  S
C708        C709   1.419       .  A
C709        C710   1.410       .  A
C709        C712   1.450       .  S
C710        C714   1.451       .  S
C711        N718   1.157       .  T
C712        N719   1.157       .  T
C713        N717   1.157       .  T
C714        N720   1.157       .  T
C715        N724   1.157       .  T
C716        N722   1.157       .  T
C725        C726   1.408   1_554  A
C725        C730   1.411       .  A
C725        C743   1.451       .  S
C726        C731   1.493       .  S
C726        C727   1.409       .  A
C727        C728   1.409   1_556  A
C727        C732   1.451       .  S
C728        C729   1.418       .  A
C728        C744   1.452       .  S
C729        C730   1.417       .  A
C730        C733   1.450       .  S
C731        C734   1.409       .  A
C731        C738   1.407       .  A
C732        N749   1.157       .  T
C733        N751   1.157       .  T
C734        C735   1.411       .  A
C734        C739   1.451       .  S
C735        C736   1.418       .  A
C735        C741   1.451       .  S
C736        C737   1.419       .  A
C737        C738   1.409       .  A
C737        C740   1.451       .  S
C738        C742   1.451       .  S
C739        N746   1.157       .  T
C740        N747   1.157       .  T
C741        N745   1.157       .  T
C742        N748   1.157       .  T
C743        N752   1.157   1_554  T
C744        N750   1.157       .  T
C753        C754   1.410       .  A
C753        C758   1.413       .  A
C753        C771   1.451       .  S
C754        C759   1.500       .  S
C754        C755   1.410       .  A
C755        C756   1.412       .  A
C755        C760   1.451       .  S
C756        C757   1.419       .  A
C756        C772   1.451       .  S
C757        C758   1.420       .  A
C758        C761   1.451       .  S
C759        C762   1.411       .  A
C759        C766   1.411       .  A
C760        N777   1.157       .  T
C761        N779   1.158       .  T
C762        C763   1.412       .  A
C762        C767   1.451       .  S
C763        C764   1.418       .  A
C763        C769   1.452       .  S
C764        C765   1.416       .  A
C765        C766   1.413       .  A
C765        C768   1.450       .  S
C766        C770   1.450       .  S
C767        N774   1.157       .  T
C768        N775   1.157       .  T
C769        N773   1.157       .  T
C770        N776   1.157       .  T
C771        N780   1.157       .  T
C772        N778   1.157       .  T
C781        C782   1.409       .  A
C781        C786   1.412       .  A
C781        C799   1.451       .  S
C782        C787   1.499       .  S
C782        C783   1.410       .  A
C783        C784   1.412       .  A
C783        C788   1.451       .  S
C784        C785   1.419       .  A
C784        C800   1.451       .  S
C785        C786   1.419       .  A
C786        C789   1.451       .  S
C787        C790   1.408       .  A
C787        C794   1.409       .  A
C788        N805   1.157       .  T
C789        N807   1.157       .  T
C790        C791   1.412       .  A
C790        C795   1.451       .  S
C791        C792   1.421       .  A
C791        C797   1.451       .  S
C792        C793   1.422       .  A
C793        C794   1.412       .  A
C793        C796   1.452       .  S
C794        C798   1.451       .  S
C795        N802   1.157       .  T
C796        N803   1.157       .  T
C797        N801   1.158   1_556  T
C798        N804   1.157       .  T
C799        N808   1.157       .  T
C800        N806   1.157       .  T
C809        C810   1.409       .  A
C809        C814   1.413       .  A
C809        C827   1.451       .  S
C810        C815   1.499       .  S
C810        C811   1.409       .  A
C811        C812   1.411       .  A
C811        C816   1.451       .  S
C812        C813   1.419       .  A
C812        C828   1.450       .  S
C813        C814   1.421       .  A
C814        C817   1.451       .  S
C815        C818   1.410       .  A
C815        C822   1.410       .  A
C816        N833   1.157       .  T
C817        N835   1.158       .  T
C818        C819   1.413       .  A
C818        C823   1.451       .  S
C819        C820   1.418       .  A
C819        C825   1.451       .  S
C820        C821   1.416       .  A
C821        C822   1.412       .  A
C821        C824   1.450       .  S
C822        C826   1.451       .  S
C823        N830   1.157       .  T
C824        N831   1.157       .  T
C825        N829   1.157       .  T
C826        N832   1.157       .  T
C827        N836   1.157       .  T
C828        N834   1.157       .  T
C837        C838   1.411   1_556  A
C837        C842   1.412       .  A
C837        C855   1.451       .  S
C838        C843   1.499       .  S
C838        C839   1.410       .  A
C839        C840   1.412       .  A
C839        C844   1.451       .  S
C840        C841   1.418   1_554  A
C840        C856   1.451       .  S
C841        C842   1.416       .  A
C842        C845   1.451       .  S
C843        C846   1.409       .  A
C843        C850   1.409       .  A
C844        N861   1.157       .  T
C845        N863   1.157       .  T
C846        C847   1.412       .  A
C846        C851   1.451       .  S
C847        C848   1.420       .  A
C847        C853   1.451       .  S
C848        C849   1.420       .  A
C849        C850   1.414       .  A
C849        C852   1.451       .  S
C850        C854   1.451   1_554  S
C851        N858   1.157       .  T
C852        N859   1.157       .  T
C853        N857   1.157       .  T
C854        N860   1.157       .  T
C855        N864   1.157       .  T
C856        N862   1.157       .  T
C865        C866   1.411       .  A
C865        C870   1.412       .  A
C865        C883   1.451       .  S
C866        C871   1.498       .  S
C866        C867   1.410       .  A
C867        C868   1.412       .  A
C867        C872   1.450       .  S
C868        C869   1.416       .  A
C868        C884   1.451       .  S
C869        C870   1.416       .  A
C870        C873   1.451       .  S
C871        C874   1.410       .  A
C871        C878   1.413       .  A
C872        N889   1.157       .  T
C873        N891   1.157       .  T
C874        C875   1.410       .  A
C874        C879   1.451       .  S
C875        C876   1.414       .  A
C875        C881   1.451       .  S
C876        C877   1.413       .  A
C877        C878   1.414       .  A
C877        C880   1.451       .  S
C878        C882   1.450       .  S
C879        N886   1.157       .  T
C880        N887   1.157       .  T
C881        N885   1.157       .  T
C882        N888   1.157       .  T
C883        N892   1.157       .  T
C884        N890   1.157       .  T
C893        C894   1.412       .  A
C893        C898   1.413       .  A
C893        C911   1.451       .  S
C894        C899   1.506       .  S
C894        C895   1.413       .  A
C895        C896   1.412       .  A
C895        C900   1.451       .  S
C896        C897   1.416       .  A
C896        C912   1.451       .  S
C897        C898   1.418       .  A
C898        C901   1.451       .  S
C899        C902   1.411       .  A
C899        C906   1.410       .  A
C900        N917   1.157       .  T
C901        N919   1.157       .  T
C902        C903   1.414       .  A
C902        C907   1.452       .  S
C903        C904   1.423       .  A
C903        C909   1.452       .  S
C904        C905   1.422       .  A
C905        C906   1.414       .  A
C905        C908   1.451       .  S
C906        C910   1.451       .  S
C907        N914   1.157       .  T
C908        N915   1.157       .  T
C909        N913   1.158       .  T
C910        N916   1.157       .  T
C911        N920   1.157       .  T
C912        N918   1.157       .  T
C921        C922   1.412       .  A
C921        C926   1.415       .  A
C921        C939   1.450       .  S
C922        C927   1.501       .  S
C922        C923   1.410       .  A
C923        C924   1.411       .  A
C923        C928   1.451       .  S
C924        C925   1.417       .  A
C924        C940   1.452       .  S
C925        C926   1.416       .  A
C926        C929   1.450       .  S
C927        C930   1.411       .  A
C927        C934   1.411       .  A
C928        N945   1.157       .  T
C929        N947   1.157       .  T
C930        C931   1.413       .  A
C930        C935   1.451       .  S
C931        C932   1.416       .  A
C931        C937   1.451       .  S
C932        C933   1.415       .  A
C933        C934   1.412       .  A
C933        C936   1.451       .  S
C934        C938   1.450       .  S
C935        N942   1.157       .  T
C936        N943   1.157       .  T
C937        N941   1.157       .  T
C938        N944   1.157       .  T
C939        N948   1.157       .  T
C940        N946   1.157       .  T
C949        C950   1.413       .  A
C949        C954   1.414       .  A
C949        C967   1.450       .  S
C950        C955   1.503       .  S
C950        C951   1.412       .  A
C951        C952   1.411       .  A
C951        C956   1.451       .  S
C952        C953   1.414       .  A
C952        C968   1.452       .  S
C953        C954   1.412       .  A
C954        C957   1.449       .  S
C955        C958   1.410       .  A
C955        C962   1.411       .  A
C956        N973   1.157       .  T
C957        N975   1.157       .  T
C958        C959   1.412       .  A
C958        C963   1.451       .  S
C959        C960   1.419       .  A
C959        C965   1.451       .  S
C960        C961   1.420       .  A
C961        C962   1.414       .  A
C961        C964   1.451       .  S
C962        C966   1.451       .  S
C963        N970   1.157       .  T
C964        N971   1.158       .  T
C965        N969   1.157       .  T
C966        N972   1.157       .  T
C967        N976   1.157       .  T
C968        N974   1.157       .  T
C977        C978   1.408       .  A
C977        C982   1.412       .  A
C977        C995   1.451       .  S
C978        C983   1.495       .  S
C978        C979   1.408       .  A
C979        C980   1.411       .  A
C979        C984   1.452       .  S
C980        C981   1.421       .  A
C980        C996   1.451       .  S
C981        C982   1.420       .  A
C982        C985   1.451       .  S
C983        C986   1.410       .  A
C983        C990   1.410       .  A
C984       N1001   1.157       .  T
C985       N1003   1.157       .  T
C986        C987   1.412       .  A
C986        C991   1.450       .  S
C987        C988   1.415       .  A
C987        C993   1.451       .  S
C988        C989   1.413       .  A
C989        C990   1.409       .  A
C989        C992   1.450       .  S
C990        C994   1.451       .  S
C991        N998   1.157       .  T
C992        N999   1.157       .  T
C993        N997   1.157       .  T
C994       N1000   1.157       .  T
C995       N1004   1.157       .  T
C996       N1002   1.158   1_554  T
C1005      C1006   1.408       .  A
C1005      C1010   1.410       .  A
C1005      C1023   1.451       .  S
C1006      C1011   1.495       .  S
C1006      C1007   1.409       .  A
C1007      C1008   1.412       .  A
C1007      C1012   1.451       .  S
C1008      C1009   1.419       .  A
C1008      C1024   1.451       .  S
C1009      C1010   1.419       .  A
C1010      C1013   1.451       .  S
C1011      C1014   1.409       .  A
C1011      C1018   1.410       .  A
C1012      N1029   1.157       .  T
C1013      N1031   1.157       .  T
C1014      C1015   1.411       .  A
C1014      C1019   1.450       .  S
C1015      C1016   1.418       .  A
C1015      C1021   1.451       .  S
C1016      C1017   1.419       .  A
C1017      C1018   1.410       .  A
C1017      C1020   1.452       .  S
C1018      C1022   1.451       .  S
C1019      N1026   1.157       .  T
C1020      N1027   1.157       .  T
C1021      N1025   1.158       .  T
C1022      N1028   1.157       .  T
C1023      N1032   1.157       .  T
C1024      N1030   1.157       .  T
C1033      C1034   1.408       .  A
C1033      C1038   1.409       .  A
C1033      C1051   1.452       .  S
C1034      C1039   1.493       .  S
C1034      C1035   1.409       .  A
C1035      C1036   1.411       .  A
C1035      C1040   1.451       .  S
C1036      C1037   1.417       .  A
C1036      C1052   1.451       .  S
C1037      C1038   1.419       .  A
C1038      C1041   1.452       .  S
C1039      C1042   1.408       .  A
C1039      C1046   1.408       .  A
C1040      N1057   1.157       .  T
C1041      N1059   1.157       .  T
C1042      C1043   1.409       .  A
C1042      C1047   1.451       .  S
C1043      C1044   1.419       .  A
C1043      C1049   1.451       .  S
C1044      C1045   1.420       .  A
C1045      C1046   1.411       .  A
C1045      C1048   1.451       .  S
C1046      C1050   1.451       .  S
C1047      N1054   1.157       .  T
C1048      N1055   1.158       .  T
C1049      N1053   1.157       .  T
C1050      N1056   1.157       .  T
C1051      N1060   1.157       .  T
C1052      N1058   1.158       .  T
C1061      C1062   1.410       .  A
C1061      C1066   1.410       .  A
C1061      C1079   1.451       .  S
C1062      C1067   1.493       .  S
C1062      C1063   1.407       .  A
C1063      C1064   1.410       .  A
C1063      C1068   1.451       .  S
C1064      C1065   1.419       .  A
C1064      C1080   1.451       .  S
C1065      C1066   1.416       .  A
C1066      C1069   1.451       .  S
C1067      C1070   1.409       .  A
C1067      C1074   1.408       .  A
C1068      N1085   1.157       .  T
C1069      N1087   1.158       .  T
C1070      C1071   1.407       .  A
C1070      C1075   1.452       .  S
C1071      C1072   1.415       .  A
C1071      C1077   1.450       .  S
C1072      C1073   1.419       .  A
C1073      C1074   1.412       .  A
C1073      C1076   1.450       .  S
C1074      C1078   1.450       .  S
C1075      N1082   1.157       .  T
C1076      N1083   1.158       .  T
C1077      N1081   1.157       .  T
C1078      N1084   1.157       .  T
C1079      N1088   1.157       .  T
C1080      N1086   1.157       .  T
C1089      C1090   1.409       .  A
C1089      C1094   1.413       .  A
C1089      C1107   1.451       .  S
C1090      C1095   1.499       .  S
C1090      C1091   1.409       .  A
C1091      C1092   1.413       .  A
C1091      C1096   1.451       .  S
C1092      C1093   1.419       .  A
C1092      C1108   1.450       .  S
C1093      C1094   1.421       .  A
C1094      C1097   1.451       .  S
C1095      C1098   1.410       .  A
C1095      C1102   1.410       .  A
C1096      N1113   1.157       .  T
C1097      N1115   1.157       .  T
C1098      C1099   1.413       .  A
C1098      C1103   1.450       .  S
C1099      C1100   1.416       .  A
C1099      C1105   1.451       .  S
C1100      C1101   1.418       .  A
C1101      C1102   1.412       .  A
C1101      C1104   1.452       .  S
C1102      C1106   1.451       .  S
C1103      N1110   1.157       .  T
C1104      N1111   1.157       .  T
C1105      N1109   1.157       .  T
C1106      N1112   1.157       .  T
C1107      N1116   1.157       .  T
C1108      N1114   1.157   1_554  T
C1117      C1118   1.408   1_556  A
C1117      C1122   1.412       .  A
C1117      C1135   1.451       .  S
C1118      C1123   1.497   1_554  S
C1118      C1119   1.408       .  A
C1119      C1120   1.410       .  A
C1119      C1124   1.452       .  S
C1120      C1121   1.421       .  A
C1120      C1136   1.452       .  S
C1121      C1122   1.421   1_554  A
C1122      C1125   1.451       .  S
C1123      C1126   1.409       .  A
C1123      C1130   1.408   1_556  A
C1124      N1141   1.157       .  T
C1125      N1143   1.158       .  T
C1126      C1127   1.412       .  A
C1126      C1131   1.452       .  S
C1127      C1128   1.419       .  A
C1127      C1133   1.451       .  S
C1128      C1129   1.420       .  A
C1129      C1130   1.412   1_556  A
C1129      C1132   1.451   1_556  S
C1130      C1134   1.451       .  S
C1131      N1138   1.157       .  T
C1132      N1139   1.157       .  T
C1133      N1137   1.157       .  T
C1134      N1140   1.157       .  T
C1135      N1144   1.157       .  T
C1136      N1142   1.158       .  T
C1145      C1146   1.410       .  A
C1145      C1150   1.411       .  A
C1145      C1163   1.451       .  S
C1146      C1151   1.495       .  S
C1146      C1147   1.410       .  A
C1147      C1148   1.409       .  A
C1147      C1152   1.450       .  S
C1148      C1149   1.413       .  A
C1148      C1164   1.450       .  S
C1149      C1150   1.418       .  A
C1150      C1153   1.452       .  S
C1151      C1154   1.410       .  A
C1151      C1158   1.408       .  A
C1152      N1169   1.157       .  T
C1153      N1171   1.158       .  T
C1154      C1155   1.411       .  A
C1154      C1159   1.451       .  S
C1155      C1156   1.417       .  A
C1155      C1161   1.451       .  S
C1156      C1157   1.418       .  A
C1157      C1158   1.411       .  A
C1157      C1160   1.451       .  S
C1158      C1162   1.451       .  S
C1159      N1166   1.157       .  T
C1160      N1167   1.157       .  T
C1161      N1165   1.157       .  T
C1162      N1168   1.157       .  T
C1163      N1172   1.157       .  T
C1164      N1170   1.157       .  T
C1173      C1174   1.408       .  A
C1173      C1178   1.410       .  A
C1173      C1191   1.451       .  S
C1174      C1179   1.494       .  S
C1174      C1175   1.408       .  A
C1175      C1176   1.410       .  A
C1175      C1180   1.451       .  S
C1176      C1177   1.419       .  A
C1176      C1192   1.451       .  S
C1177      C1178   1.419       .  A
C1178      C1181   1.452       .  S
C1179      C1182   1.410       .  A
C1179      C1186   1.410       .  A
C1180      N1197   1.157       .  T
C1181      N1199   1.157       .  T
C1182      C1183   1.408       .  A
C1182      C1187   1.452       .  S
C1183      C1184   1.415       .  A
C1183      C1189   1.452       .  S
C1184      C1185   1.414       .  A
C1185      C1186   1.412       .  A
C1185      C1188   1.450       .  S
C1186      C1190   1.450       .  S
C1187      N1194   1.157       .  T
C1188      N1195   1.157       .  T
C1189      N1193   1.157       .  T
C1190      N1196   1.157       .  T
C1191      N1200   1.157       .  T
C1192      N1198   1.157       .  T
C1201      C1202   1.411       .  A
C1201      C1206   1.411       .  A
C1201      C1219   1.451       .  S
C1202      C1207   1.500       .  S
C1202      C1203   1.412       .  A
C1203      C1204   1.411       .  A
C1203      C1208   1.451       .  S
C1204      C1205   1.415       .  A
C1204      C1220   1.451       .  S
C1205      C1206   1.417       .  A
C1206      C1209   1.452       .  S
C1207      C1210   1.413       .  A
C1207      C1214   1.412       .  A
C1208      N1225   1.157       .  T
C1209      N1227   1.157       .  T
C1210      C1211   1.411       .  A
C1210      C1215   1.451       .  S
C1211      C1212   1.413       .  A
C1211      C1217   1.451       .  S
C1212      C1213   1.415       .  A
C1213      C1214   1.411       .  A
C1213      C1216   1.451       .  S
C1214      C1218   1.451       .  S
C1215      N1222   1.157       .  T
C1216      N1223   1.157       .  T
C1217      N1221   1.157   1_554  T
C1218      N1224   1.157       .  T
C1219      N1228   1.157       .  T
C1220      N1226   1.157       .  T
C1229      C1230   1.408       .  A
C1229      C1234   1.412       .  A
C1229      C1247   1.451       .  S
C1230      C1235   1.498       .  S
C1230      C1231   1.409       .  A
C1231      C1232   1.413       .  A
C1231      C1236   1.451       .  S
C1232      C1233   1.422       .  A
C1232      C1248   1.451       .  S
C1233      C1234   1.423       .  A
C1234      C1237   1.451       .  S
C1235      C1238   1.409       .  A
C1235      C1242   1.410       .  A
C1236      N1253   1.157       .  T
C1237      N1255   1.158       .  T
C1238      C1239   1.411       .  A
C1238      C1243   1.451       .  S
C1239      C1240   1.418       .  A
C1239      C1245   1.451       .  S
C1240      C1241   1.417       .  A
C1241      C1242   1.413       .  A
C1241      C1244   1.451       .  S
C1242      C1246   1.451       .  S
C1243      N1250   1.157       .  T
C1244      N1251   1.157       .  T
C1245      N1249   1.157       .  T
C1246      N1252   1.157       .  T
C1247      N1256   1.157       .  T
C1248      N1254   1.158       .  T
C1257      C1258   1.410       .  A
C1257      C1262   1.410       .  A
C1257      C1275   1.451       .  S
C1258      C1263   1.497       .  S
C1258      C1259   1.410       .  A
C1259      C1260   1.412       .  A
C1259      C1264   1.451       .  S
C1260      C1261   1.417       .  A
C1260      C1276   1.451       .  S
C1261      C1262   1.416       .  A
C1262      C1265   1.451       .  S
C1263      C1266   1.409       .  A
C1263      C1270   1.408       .  A
C1264      N1281   1.157       .  T
C1265      N1283   1.157       .  T
C1266      C1267   1.413       .  A
C1266      C1271   1.451       .  S
C1267      C1268   1.419       .  A
C1267      C1273   1.451       .  S
C1268      C1269   1.421       .  A
C1269      C1270   1.411       .  A
C1269      C1272   1.451       .  S
C1270      C1274   1.452       .  S
C1271      N1278   1.157       .  T
C1272      N1279   1.157       .  T
C1273      N1277   1.157       .  T
C1274      N1280   1.157       .  T
C1275      N1284   1.157       .  T
C1276      N1282   1.157       .  T
C1285      C1286   1.408       .  A
C1285      C1290   1.410       .  A
C1285      C1303   1.452       .  S
C1286      C1291   1.497       .  S
C1286      C1287   1.408       .  A
C1287      C1288   1.412       .  A
C1287      C1292   1.451       .  S
C1288      C1289   1.421       .  A
C1288      C1304   1.451       .  S
C1289      C1290   1.421       .  A
C1290      C1293   1.451       .  S
C1291      C1294   1.408       .  A
C1291      C1298   1.408       .  A
C1292      N1309   1.157       .  T
C1293      N1311   1.157       .  T
C1294      C1295   1.412       .  A
C1294      C1299   1.452       .  S
C1295      C1296   1.420       .  A
C1295      C1301   1.450       .  S
C1296      C1297   1.422       .  A
C1297      C1298   1.411       .  A
C1297      C1300   1.451       .  S
C1298      C1302   1.451       .  S
C1299      N1306   1.157       .  T
C1300      N1307   1.157       .  T
C1301      N1305   1.158   1_556  T
C1302      N1308   1.158       .  T
C1303      N1312   1.157       .  T
C1304      N1310   1.158       .  T
C1313      C1314   1.409       .  A
C1313      C1318   1.411       .  A
C1313      C1331   1.451       .  S
C1314      C1319   1.492       .  S
C1314      C1315   1.409   1_554  A
C1315      C1316   1.409       .  A
C1315      C1320   1.451       .  S
C1316      C1317   1.416       .  A
C1316      C1332   1.451       .  S
C1317      C1318   1.417   1_556  A
C1318      C1321   1.450       .  S
C1319      C1322   1.407       .  A
C1319      C1326   1.408       .  A
C1320      N1337   1.157       .  T
C1321      N1339   1.157       .  T
C1322      C1323   1.408       .  A
C1322      C1327   1.452       .  S
C1323      C1324   1.419       .  A
C1323      C1329   1.451       .  S
C1324      C1325   1.420       .  A
C1325      C1326   1.412       .  A
C1325      C1328   1.451   1_554  S
C1326      C1330   1.451   1_554  S
C1327      N1334   1.157       .  T
C1328      N1335   1.157       .  T
C1329      N1333   1.157       .  T
C1330      N1336   1.157       .  T
C1331      N1340   1.157       .  T
C1332      N1338   1.157       .  T
C1341      C1342   1.408       .  A
C1341      C1346   1.412       .  A
C1341      C1359   1.451       .  S
C1342      C1347   1.495       .  S
C1342      C1343   1.408       .  A
C1343      C1344   1.410       .  A
C1343      C1348   1.452       .  S
C1344      C1345   1.419       .  A
C1344      C1360   1.451       .  S
C1345      C1346   1.421       .  A
C1346      C1349   1.451       .  S
C1347      C1350   1.409       .  A
C1347      C1354   1.409       .  A
C1348      N1365   1.157       .  T
C1349      N1367   1.157       .  T
C1350      C1351   1.412       .  A
C1350      C1355   1.451       .  S
C1351      C1352   1.420       .  A
C1351      C1357   1.451       .  S
C1352      C1353   1.418       .  A
C1353      C1354   1.410       .  A
C1353      C1356   1.451       .  S
C1354      C1358   1.452       .  S
C1355      N1362   1.157       .  T
C1356      N1363   1.157       .  T
C1357      N1361   1.157       .  T
C1358      N1364   1.157       .  T
C1359      N1368   1.157       .  T
C1360      N1366   1.157       .  T
C1369      C1370   1.410       .  A
C1369      C1374   1.412       .  A
C1369      C1387   1.451       .  S
C1370      C1375   1.497       .  S
C1370      C1371   1.409       .  A
C1371      C1372   1.410       .  A
C1371      C1376   1.451       .  S
C1372      C1373   1.418       .  A
C1372      C1388   1.451       .  S
C1373      C1374   1.419       .  A
C1374      C1377   1.451       .  S
C1375      C1378   1.412       .  A
C1375      C1382   1.410       .  A
C1376      N1393   1.157       .  T
C1377      N1395   1.158       .  T
C1378      C1379   1.413       .  A
C1378      C1383   1.450       .  S
C1379      C1380   1.413       .  A
C1379      C1385   1.451       .  S
C1380      C1381   1.414       .  A
C1381      C1382   1.409       .  A
C1381      C1384   1.451       .  S
C1382      C1386   1.451       .  S
C1383      N1390   1.157       .  T
C1384      N1391   1.157       .  T
C1385      N1389   1.157       .  T
C1386      N1392   1.157       .  T
C1387      N1396   1.157       .  T
C1388      N1394   1.157       .  T
C1397      C1398   1.409       .  A
C1397      C1402   1.408       .  A
C1397      C1415   1.451       .  S
C1398      C1403   1.494       .  S
C1398      C1399   1.410       .  A
C1399      C1400   1.411       .  A
C1399      C1404   1.451       .  S
C1400      C1401   1.418       .  A
C1400      C1416   1.451       .  S
C1401      C1402   1.416       .  A
C1402      C1405   1.451       .  S
C1403      C1406   1.410       .  A
C1403      C1410   1.408       .  A
C1404      N1421   1.157       .  T
C1405      N1423   1.157       .  T
C1406      C1407   1.410       .  A
C1406      C1411   1.452       .  S
C1407      C1408   1.418       .  A
C1407      C1413   1.452       .  S
C1408      C1409   1.419       .  A
C1409      C1410   1.411       .  A
C1409      C1412   1.451       .  S
C1410      C1414   1.451       .  S
C1411      N1418   1.157       .  T
C1412      N1419   1.158       .  T
C1413      N1417   1.157       .  T
C1414      N1420   1.157       .  T
C1415      N1424   1.157       .  T
C1416      N1422   1.157       .  T
C1425      C1426   1.410       .  A
C1425      C1430   1.409       .  A
C1425      C1443   1.451       .  S
C1426      C1431   1.494       .  S
C1426      C1427   1.411       .  A
C1427      C1428   1.410       .  A
C1427      C1432   1.450       .  S
C1428      C1429   1.414       .  A
C1428      C1444   1.451       .  S
C1429      C1430   1.414       .  A
C1430      C1433   1.452       .  S
C1431      C1434   1.409       .  A
C1431      C1438   1.409       .  A
C1432      N1449   1.157       .  T
C1433      N1451   1.157       .  T
C1434      C1435   1.412       .  A
C1434      C1439   1.451       .  S
C1435      C1436   1.418       .  A
C1435      C1441   1.451       .  S
C1436      C1437   1.418       .  A
C1437      C1438   1.409       .  A
C1437      C1440   1.451       .  S
C1438      C1442   1.451       .  S
C1439      N1446   1.157       .  T
C1440      N1447   1.157       .  T
C1441      N1445   1.157       .  T
C1442      N1448   1.157       .  T
C1443      N1452   1.157       .  T
C1444      N1450   1.157       .  T
C1453      C1454   1.410       .  A
C1453      C1458   1.411       .  A
C1453      C1471   1.450       .  S
C1454      C1459   1.496       .  S
C1454      C1455   1.410       .  A
C1455      C1456   1.410       .  A
C1455      C1460   1.451       .  S
C1456      C1457   1.417       .  A
C1456      C1472   1.451       .  S
C1457      C1458   1.417       .  A
C1458      C1461   1.452       .  S
C1459      C1462   1.410       .  A
C1459      C1466   1.410       .  A
C1460      N1477   1.157       .  T
C1461      N1479   1.157       .  T
C1462      C1463   1.411       .  A
C1462      C1467   1.451       .  S
C1463      C1464   1.415       .  A
C1463      C1469   1.451       .  S
C1464      C1465   1.416       .  A
C1465      C1466   1.411       .  A
C1465      C1468   1.451       .  S
C1466      C1470   1.451       .  S
C1467      N1474   1.157       .  T
C1468      N1475   1.157       .  T
C1469      N1473   1.157   1_556  T
C1470      N1476   1.157       .  T
C1471      N1480   1.157       .  T
C1472      N1478   1.157       .  T
C1481      C1482   1.411       .  A
C1481      C1486   1.411   1_554  A
C1481      C1499   1.451   1_655  S
C1482      C1487   1.495       .  S
C1482      C1483   1.409       .  A
C1483      C1484   1.410       .  A
C1483      C1488   1.451       .  S
C1484      C1485   1.416   1_554  A
C1484      C1500   1.451   1_554  S
C1485      C1486   1.415       .  A
C1486      C1489   1.451       .  S
C1487      C1490   1.410   1_655  A
C1487      C1494   1.409       .  A
C1488      N1505   1.157       .  T
C1489      N1507   1.157   1_655  T
C1490      C1491   1.411       .  A
C1490      C1495   1.451       .  S
C1491      C1492   1.416       .  A
C1491      C1497   1.451       .  S
C1492      C1493   1.417   1_455  A
C1493      C1494   1.410       .  A
C1493      C1496   1.452       .  S
C1494      C1498   1.451       .  S
C1495      N1502   1.157       .  T
C1496      N1503   1.157       .  T
C1497      N1501   1.157       .  T
C1498      N1504   1.157       .  T
C1499      N1508   1.157       .  T
C1500      N1506   1.157       .  T
C1509      C1510   1.410       .  A
C1509      C1514   1.408       .  A
C1509      C1527   1.452       .  S
C1510      C1515   1.496       .  S
C1510      C1511   1.412       .  A
C1511      C1512   1.411       .  A
C1511      C1516   1.451   1_655  S
C1512      C1513   1.414       .  A
C1512      C1528   1.451       .  S
C1513      C1514   1.416       .  A
C1514      C1517   1.452       .  S
C1515      C1518   1.411       .  A
C1515      C1522   1.409   1_655  A
C1516      N1533   1.157       .  T
C1517      N1535   1.157       .  T
C1518      C1519   1.412       .  A
C1518      C1523   1.451       .  S
C1519      C1520   1.417   1_655  A
C1519      C1525   1.451       .  S
C1520      C1521   1.417       .  A
C1521      C1522   1.408       .  A
C1521      C1524   1.452       .  S
C1522      C1526   1.452       .  S
C1523      N1530   1.158       .  T
C1524      N1531   1.158       .  T
C1525      N1529   1.157       .  T
C1526      N1532   1.157       .  T
C1527      N1536   1.157       .  T
C1528      N1534   1.157       .  T
C1537      C1538   1.410       .  A
C1537      C1542   1.412       .  A
C1537      C1555   1.450       .  S
C1538      C1543   1.497       .  S
C1538      C1539   1.410       .  A
C1539      C1540   1.411       .  A
C1539      C1544   1.451       .  S
C1540      C1541   1.417       .  A
C1540      C1556   1.451       .  S
C1541      C1542   1.416       .  A
C1542      C1545   1.451       .  S
C1543      C1546   1.409       .  A
C1543      C1550   1.410       .  A
C1544      N1561   1.157       .  T
C1545      N1563   1.157       .  T
C1546      C1547   1.411       .  A
C1546      C1551   1.451       .  S
C1547      C1548   1.416       .  A
C1547      C1553   1.451       .  S
C1548      C1549   1.416       .  A
C1549      C1550   1.412       .  A
C1549      C1552   1.451       .  S
C1550      C1554   1.450       .  S
C1551      N1558   1.157       .  T
C1552      N1559   1.157       .  T
C1553      N1557   1.157       .  T
C1554      N1560   1.157       .  T
C1555      N1564   1.157       .  T
C1556      N1562   1.157       .  T
C1565      C1566   1.409       .  A
C1565      C1570   1.412       .  A
C1565      C1583   1.450       .  S
C1566      C1571   1.495       .  S
C1566      C1567   1.410       .  A
C1567      C1568   1.409       .  A
C1567      C1572   1.452       .  S
C1568      C1569   1.418       .  A
C1568      C1584   1.452       .  S
C1569      C1570   1.416       .  A
C1570      C1573   1.450       .  S
C1571      C1574   1.410       .  A
C1571      C1578   1.410       .  A
C1572      N1589   1.157       .  T
C1573      N1591   1.157       .  T
C1574      C1575   1.410       .  A
C1574      C1579   1.451       .  S
C1575      C1576   1.416       .  A
C1575      C1581   1.451       .  S
C1576      C1577   1.414       .  A
C1577      C1578   1.409       .  A
C1577      C1580   1.451       .  S
C1578      C1582   1.450       .  S
C1579      N1586   1.157       .  T
C1580      N1587   1.157       .  T
C1581      N1585   1.157       .  T
C1582      N1588   1.157       .  T
C1583      N1592   1.157       .  T
C1584      N1590   1.158   1_455  T
C1593      C1594   1.408       .  A
C1593      C1598   1.410       .  A
C1593      C1611   1.452       .  S
C1594      C1599   1.494       .  S
C1594      C1595   1.408       .  A
C1595      C1596   1.413       .  A
C1595      C1600   1.451       .  S
C1596      C1597   1.420       .  A
C1596      C1612   1.451       .  S
C1597      C1598   1.419       .  A
C1598      C1601   1.450       .  S
C1599      C1602   1.408       .  A
C1599      C1606   1.410       .  A
C1600      N1617   1.157       .  T
C1601      N1619   1.157       .  T
C1602      C1603   1.411       .  A
C1602      C1607   1.451       .  S
C1603      C1604   1.420       .  A
C1603      C1609   1.451       .  S
C1604      C1605   1.417       .  A
C1605      C1606   1.409       .  A
C1605      C1608   1.452       .  S
C1606      C1610   1.452       .  S
C1607      N1614   1.157       .  T
C1608      N1615   1.157       .  T
C1609      N1613   1.158       .  T
C1610      N1616   1.157       .  T
C1611      N1620   1.157       .  T
C1612      N1618   1.157       .  T
C1621      C1622   1.408       .  A
C1621      C1626   1.411       .  A
C1621      C1639   1.451       .  S
C1622      C1627   1.497       .  S
C1622      C1623   1.409       .  A
C1623      C1624   1.412       .  A
C1623      C1628   1.452       .  S
C1624      C1625   1.419       .  A
C1624      C1640   1.450       .  S
C1625      C1626   1.419       .  A
C1626      C1629   1.451       .  S
C1627      C1630   1.410       .  A
C1627      C1634   1.409   1_655  A
C1628      N1645   1.157       .  T
C1629      N1647   1.157       .  T
C1630      C1631   1.412       .  A
C1630      C1635   1.451       .  S
C1631      C1632   1.418   1_655  A
C1631      C1637   1.451       .  S
C1632      C1633   1.418       .  A
C1633      C1634   1.410       .  A
C1633      C1636   1.452       .  S
C1634      C1638   1.451       .  S
C1635      N1642   1.157       .  T
C1636      N1643   1.157       .  T
C1637      N1641   1.157       .  T
C1638      N1644   1.157       .  T
C1639      N1648   1.157       .  T
C1640      N1646   1.157       .  T
C1649      C1650   1.409       .  A
C1649      C1654   1.409       .  A
C1649      C1667   1.452   1_655  S
C1650      C1655   1.496       .  S
C1650      C1651   1.410       .  A
C1651      C1652   1.413       .  A
C1651      C1656   1.451       .  S
C1652      C1653   1.416       .  A
C1652      C1668   1.450       .  S
C1653      C1654   1.417       .  A
C1654      C1657   1.452       .  S
C1655      C1658   1.411       .  A
C1655      C1662   1.411   1_655  A
C1656      N1673   1.157       .  T
C1657      N1675   1.157       .  T
C1658      C1659   1.409   1_556  A
C1658      C1663   1.451       .  S
C1659      C1660   1.413   1_655  A
C1659      C1665   1.451       .  S
C1660      C1661   1.413   1_554  A
C1661      C1662   1.411       .  A
C1661      C1664   1.451   1_556  S
C1662      C1666   1.450       .  S
C1663      N1670   1.157       .  T
C1664      N1671   1.157       .  T
C1665      N1669   1.157       .  T
C1666      N1672   1.157       .  T
C1667      N1676   1.157       .  T
C1668      N1674   1.157       .  T
C1677      C1678   1.412       .  A
C1677      C1682   1.411       .  A
C1677      C1695   1.450       .  S
C1678      C1683   1.498       .  S
C1678      C1679   1.412       .  A
C1679      C1680   1.412       .  A
C1679      C1684   1.450       .  S
C1680      C1681   1.413       .  A
C1680      C1696   1.451       .  S
C1681      C1682   1.411       .  A
C1682      C1685   1.450       .  S
C1683      C1686   1.410       .  A
C1683      C1690   1.410       .  A
C1684      N1701   1.157       .  T
C1685      N1703   1.157       .  T
C1686      C1687   1.412       .  A
C1686      C1691   1.451       .  S
C1687      C1688   1.418       .  A
C1687      C1693   1.451       .  S
C1688      C1689   1.417       .  A
C1689      C1690   1.411       .  A
C1689      C1692   1.452       .  S
C1690      C1694   1.451       .  S
C1691      N1698   1.157       .  T
C1692      N1699   1.158       .  T
C1693      N1697   1.158       .  T
C1694      N1700   1.157       .  T
C1695      N1704   1.157       .  T
C1696      N1702   1.157       .  T
C1705      C1706   1.412   1_554  A
C1705      C1710   1.412       .  A
C1705      C1723   1.450   1_554  S
C1706      C1711   1.496       .  S
C1706      C1707   1.411       .  A
C1707      C1708   1.408   1_556  A
C1707      C1712   1.451       .  S
C1708      C1709   1.412       .  A
C1708      C1724   1.451       .  S
C1709      C1710   1.414       .  A
C1710      C1713   1.452       .  S
C1711      C1714   1.408   1_655  A
C1711      C1718   1.408       .  A
C1712      N1729   1.157       .  T
C1713      N1731   1.157       .  T
C1714      C1715   1.413       .  A
C1714      C1719   1.452       .  S
C1715      C1716   1.421       .  A
C1715      C1721   1.450       .  S
C1716      C1717   1.420   1_455  A
C1717      C1718   1.411       .  A
C1717      C1720   1.451       .  S
C1718      C1722   1.451       .  S
C1719      N1726   1.157   1_556  T
C1720      N1727   1.158       .  T
C1721      N1725   1.157       .  T
C1722      N1728   1.157       .  T
C1723      N1732   1.157       .  T
C1724      N1730   1.157       .  T
C1733      C1734   1.410   1_455  A
C1733      C1738   1.413       .  A
C1733      C1751   1.452       .  S
C1734      C1739   1.500       .  S
C1734      C1735   1.408       .  A
C1735      C1736   1.413   1_655  A
C1735      C1740   1.451       .  S
C1736      C1737   1.421       .  A
C1736      C1752   1.451   1_455  S
C1737      C1738   1.421       .  A
C1738      C1741   1.452       .  S
C1739      C1742   1.410       .  A
C1739      C1746   1.411       .  A
C1740      N1757   1.157       .  T
C1741      N1759   1.158       .  T
C1742      C1743   1.411       .  A
C1742      C1747   1.450       .  S
C1743      C1744   1.417       .  A
C1743      C1749   1.452       .  S
C1744      C1745   1.418       .  A
C1745      C1746   1.413       .  A
C1745      C1748   1.451       .  S
C1746      C1750   1.451   1_655  S
C1747      N1754   1.157       .  T
C1748      N1755   1.158       .  T
C1749      N1753   1.157       .  T
C1750      N1756   1.157       .  T
C1751      N1760   1.157       .  T
C1752      N1758   1.157       .  T
C1761      C1762   1.411       .  A
C1761      C1766   1.414       .  A
C1761      C1779   1.451       .  S
C1762      C1767   1.499       .  S
C1762      C1763   1.409       .  A
C1763      C1764   1.411       .  A
C1763      C1768   1.451       .  S
C1764      C1765   1.418       .  A
C1764      C1780   1.452       .  S
C1765      C1766   1.416       .  A
C1766      C1769   1.450       .  S
C1767      C1770   1.411       .  A
C1767      C1774   1.411       .  A
C1768      N1785   1.157       .  T
C1769      N1787   1.157       .  T
C1770      C1771   1.413       .  A
C1770      C1775   1.450       .  S
C1771      C1772   1.414       .  A
C1771      C1777   1.450       .  S
C1772      C1773   1.414       .  A
C1773      C1774   1.411       .  A
C1773      C1776   1.452       .  S
C1774      C1778   1.450       .  S
C1775      N1782   1.157   1_556  T
C1776      N1783   1.157       .  T
C1777      N1781   1.157   1_556  T
C1778      N1784   1.157       .  T
C1779      N1788   1.157       .  T
C1780      N1786   1.157       .  T
C1789      C1790   1.408       .  A
C1789      C1794   1.411       .  A
C1789      C1807   1.451       .  S
C1790      C1795   1.495   1_565  S
C1790      C1791   1.409       .  A
C1791      C1792   1.411       .  A
C1791      C1796   1.452       .  S
C1792      C1793   1.419       .  A
C1792      C1808   1.451       .  S
C1793      C1794   1.419       .  A
C1794      C1797   1.452       .  S
C1795      C1798   1.407       .  A
C1795      C1802   1.408       .  A
C1796      N1813   1.157   1_565  T
C1797      N1815   1.157       .  T
C1798      C1799   1.409       .  A
C1798      C1803   1.452   1_545  S
C1799      C1800   1.423       .  A
C1799      C1805   1.452       .  S
C1800      C1801   1.423       .  A
C1801      C1802   1.413       .  A
C1801      C1804   1.451       .  S
C1802      C1806   1.451       .  S
C1803      N1810   1.157       .  T
C1804      N1811   1.158       .  T
C1805      N1809   1.158       .  T
C1806      N1812   1.157       .  T
C1807      N1816   1.157       .  T
C1808      N1814   1.157       .  T
C1817      C1818   1.409       .  A
C1817      C1822   1.409       .  A
C1817      C1835   1.452       .  S
C1818      C1823   1.497       .  S
C1818      C1819   1.411       .  A
C1819      C1820   1.412       .  A
C1819      C1824   1.451       .  S
C1820      C1821   1.417       .  A
C1820      C1836   1.451       .  S
C1821      C1822   1.417       .  A
C1822      C1825   1.450       .  S
C1823      C1826   1.410       .  A
C1823      C1830   1.411       .  A
C1824      N1841   1.157       .  T
C1825      N1843   1.157       .  T
C1826      C1827   1.411       .  A
C1826      C1831   1.451       .  S
C1827      C1828   1.417       .  A
C1827      C1833   1.451       .  S
C1828      C1829   1.418       .  A
C1829      C1830   1.410       .  A
C1829      C1832   1.452       .  S
C1830      C1834   1.452       .  S
C1831      N1838   1.157       .  T
C1832      N1839   1.158       .  T
C1833      N1837   1.157       .  T
C1834      N1840   1.157       .  T
C1835      N1844   1.157       .  T
C1836      N1842   1.158       .  T
C1845      C1846   1.410       .  A
C1845      C1850   1.410       .  A
C1845      C1863   1.451       .  S
C1846      C1851   1.495   1_565  S
C1846      C1847   1.410       .  A
C1847      C1848   1.411       .  A
C1847      C1852   1.451       .  S
C1848      C1849   1.416       .  A
C1848      C1864   1.451       .  S
C1849      C1850   1.414       .  A
C1850      C1853   1.451       .  S
C1851      C1854   1.408       .  A
C1851      C1858   1.408       .  A
C1852      N1869   1.157       .  T
C1853      N1871   1.157       .  T
C1854      C1855   1.410       .  A
C1854      C1859   1.452   1_545  S
C1855      C1856   1.421       .  A
C1855      C1861   1.452       .  S
C1856      C1857   1.421       .  A
C1857      C1858   1.413       .  A
C1857      C1860   1.450       .  S
C1858      C1862   1.451       .  S
C1859      N1866   1.157       .  T
C1860      N1867   1.157       .  T
C1861      N1865   1.157       .  T
C1862      N1868   1.157   1_545  T
C1863      N1872   1.157   1_565  T
C1864      N1870   1.157       .  T
C1873      C1874   1.411   1_655  A
C1873      C1878   1.412       .  A
C1873      C1891   1.450       .  S
C1874      C1879   1.499       .  S
C1874      C1875   1.411   1_455  A
C1875      C1876   1.410       .  A
C1875      C1880   1.451   1_655  S
C1876      C1877   1.413       .  A
C1876      C1892   1.451       .  S
C1877      C1878   1.414       .  A
C1878      C1881   1.451       .  S
C1879      C1882   1.408       .  A
C1879      C1886   1.409   1_455  A
C1880      N1897   1.157       .  T
C1881      N1899   1.158       .  T
C1882      C1883   1.413       .  A
C1882      C1887   1.451       .  S
C1883      C1884   1.421       .  A
C1883      C1889   1.451       .  S
C1884      C1885   1.422       .  A
C1885      C1886   1.412   1_455  A
C1885      C1888   1.451   1_455  S
C1886      C1890   1.452       .  S
C1887      N1894   1.157       .  T
C1888      N1895   1.157       .  T
C1889      N1893   1.158       .  T
C1890      N1896   1.157       .  T
C1891      N1900   1.157       .  T
C1892      N1898   1.157       .  T
C1901      C1902   1.410   1_655  A
C1901      C1906   1.411       .  A
C1901      C1919   1.451       .  S
C1902      C1907   1.493       .  S
C1902      C1903   1.409       .  A
C1903      C1904   1.408   1_455  A
C1903      C1908   1.451       .  S
C1904      C1905   1.415       .  A
C1904      C1920   1.452       .  S
C1905      C1906   1.414       .  A
C1906      C1909   1.449       .  S
C1907      C1910   1.410       .  A
C1907      C1914   1.409       .  A
C1908      N1925   1.157       .  T
C1909      N1927   1.157       .  T
C1910      C1911   1.409   1_554  A
C1910      C1915   1.451   1_455  S
C1911      C1912   1.414       .  A
C1911      C1917   1.451   1_455  S
C1912      C1913   1.415   1_556  A
C1913      C1914   1.410       .  A
C1913      C1916   1.451       .  S
C1914      C1918   1.450       .  S
C1915      N1922   1.157       .  T
C1916      N1923   1.158       .  T
C1917      N1921   1.157       .  T
C1918      N1924   1.157       .  T
C1919      N1928   1.157       .  T
C1920      N1926   1.157       .  T
C1929      C1930   1.408       .  A
C1929      C1934   1.410       .  A
C1929      C1947   1.451       .  S
C1930      C1935   1.495       .  S
C1930      C1931   1.410       .  A
C1931      C1932   1.411       .  A
C1931      C1936   1.451       .  S
C1932      C1933   1.418       .  A
C1932      C1948   1.452       .  S
C1933      C1934   1.417       .  A
C1934      C1937   1.451       .  S
C1935      C1938   1.412       .  A
C1935      C1942   1.410       .  A
C1936      N1953   1.157       .  T
C1937      N1955   1.157       .  T
C1938      C1939   1.411       .  A
C1938      C1943   1.450       .  S
C1939      C1940   1.413       .  A
C1939      C1945   1.451       .  S
C1940      C1941   1.414       .  A
C1941      C1942   1.409       .  A
C1941      C1944   1.452       .  S
C1942      C1946   1.451       .  S
C1943      N1950   1.157       .  T
C1944      N1951   1.157       .  T
C1945      N1949   1.157       .  T
C1946      N1952   1.157       .  T
C1947      N1956   1.157       .  T
C1948      N1954   1.158       .  T
C1957      C1958   1.407       .  A
C1957      C1962   1.413       .  A
C1957      C1975   1.451       .  S
C1958      C1963   1.500       .  S
C1958      C1959   1.408       .  A
C1959      C1960   1.413       .  A
C1959      C1964   1.452       .  S
C1960      C1961   1.424       .  A
C1960      C1976   1.452       .  S
C1961      C1962   1.425       .  A
C1962      C1965   1.452       .  S
C1963      C1966   1.411       .  A
C1963      C1970   1.410       .  A
C1964      N1981   1.157       .  T
C1965      N1983   1.158       .  T
C1966      C1967   1.414       .  A
C1966      C1971   1.450       .  S
C1967      C1968   1.416       .  A
C1967      C1973   1.451       .  S
C1968      C1969   1.416       .  A
C1969      C1970   1.412       .  A
C1969      C1972   1.451       .  S
C1970      C1974   1.451       .  S
C1971      N1978   1.157       .  T
C1972      N1979   1.157   1_556  T
C1973      N1977   1.157       .  T
C1974      N1980   1.157       .  T
C1975      N1984   1.157       .  T
C1976      N1982   1.158       .  T
C1985      C1986   1.410       .  A
C1985      C1990   1.413       .  A
C1985      C2003   1.451       .  S
C1986      C1991   1.503       .  S
C1986      C1987   1.410       .  A
C1987      C1988   1.414       .  A
C1987      C1992   1.451       .  S
C1988      C1989   1.418       .  A
C1988      C2004   1.450       .  S
C1989      C1990   1.419       .  A
C1990      C1993   1.451       .  S
C1991      C1994   1.410       .  A
C1991      C1998   1.410       .  A
C1992      N2009   1.157       .  T
C1993      N2011   1.157       .  T
C1994      C1995   1.413       .  A
C1994      C1999   1.451       .  S
C1995      C1996   1.419       .  A
C1995      C2001   1.451       .  S
C1996      C1997   1.420       .  A
C1997      C1998   1.414       .  A
C1997      C2000   1.451       .  S
C1998      C2002   1.451       .  S
C1999      N2006   1.157       .  T
C2000      N2007   1.158       .  T
C2001      N2005   1.157       .  T
C2002      N2008   1.157       .  T
C2003      N2012   1.157       .  T
C2004      N2010   1.157       .  T
C2013      C2014   1.411       .  A
C2013      C2018   1.413       .  A
C2013      C2031   1.450       .  S
C2014      C2019   1.499       .  S
C2014      C2015   1.411       .  A
C2015      C2016   1.412       .  A
C2015      C2020   1.451       .  S
C2016      C2017   1.417       .  A
C2016      C2032   1.452       .  S
C2017      C2018   1.415       .  A
C2018      C2021   1.450       .  S
C2019      C2022   1.411       .  A
C2019      C2026   1.410       .  A
C2020      N2037   1.157       .  T
C2021      N2039   1.157       .  T
C2022      C2023   1.412       .  A
C2022      C2027   1.451       .  S
C2023      C2024   1.416       .  A
C2023      C2029   1.451       .  S
C2024      C2025   1.418       .  A
C2025      C2026   1.412       .  A
C2025      C2028   1.451       .  S
C2026      C2030   1.451       .  S
C2027      N2034   1.157       .  T
C2028      N2035   1.157       .  T
C2029      N2033   1.157       .  T
C2030      N2036   1.157       .  T
C2031      N2040   1.157       .  T
C2032      N2038   1.157       .  T
C2041      C2042   1.411       .  A
C2041      C2046   1.413       .  A
C2041      C2059   1.450       .  S
C2042      C2047   1.501       .  S
C2042      C2043   1.411       .  A
C2043      C2044   1.413       .  A
C2043      C2048   1.451       .  S
C2044      C2045   1.417       .  A
C2044      C2060   1.451       .  S
C2045      C2046   1.418       .  A
C2046      C2049   1.451       .  S
C2047      C2050   1.411       .  A
C2047      C2054   1.412       .  A
C2048      N2065   1.157       .  T
C2049      N2067   1.158       .  T
C2050      C2051   1.412       .  A
C2050      C2055   1.450       .  S
C2051      C2052   1.415       .  A
C2051      C2057   1.451       .  S
C2052      C2053   1.413       .  A
C2053      C2054   1.413       .  A
C2053      C2056   1.451       .  S
C2054      C2058   1.450       .  S
C2055      N2062   1.157       .  T
C2056      N2063   1.157       .  T
C2057      N2061   1.157       .  T
C2058      N2064   1.157       .  T
C2059      N2068   1.157       .  T
C2060      N2066   1.157       .  T
C2069      C2070   1.410       .  A
C2069      C2074   1.411       .  A
C2069      C2087   1.452       .  S
C2070      C2075   1.496       .  S
C2070      C2071   1.407       .  A
C2071      C2072   1.412       .  A
C2071      C2076   1.451       .  S
C2072      C2073   1.420       .  A
C2072      C2088   1.450       .  S
C2073      C2074   1.418       .  A
C2074      C2077   1.451       .  S
C2075      C2078   1.409       .  A
C2075      C2082   1.409       .  A
C2076      N2093   1.157       .  T
C2077      N2095   1.157       .  T
C2078      C2079   1.413       .  A
C2078      C2083   1.450       .  S
C2079      C2080   1.419       .  A
C2079      C2085   1.451       .  S
C2080      C2081   1.417       .  A
C2081      C2082   1.409       .  A
C2081      C2084   1.452       .  S
C2082      C2086   1.451       .  S
C2083      N2090   1.157       .  T
C2084      N2091   1.157       .  T
C2085      N2089   1.158       .  T
C2086      N2092   1.157       .  T
C2087      N2096   1.157       .  T
C2088      N2094   1.157       .  T
C2097      C2098   1.410       .  A
C2097      C2102   1.413       .  A
C2097      C2115   1.451       .  S
C2098      C2103   1.498       .  S
C2098      C2099   1.409       .  A
C2099      C2100   1.412       .  A
C2099      C2104   1.451       .  S
C2100      C2101   1.418       .  A
C2100      C2116   1.451       .  S
C2101      C2102   1.418       .  A
C2102      C2105   1.451       .  S
C2103      C2106   1.409       .  A
C2103      C2110   1.410       .  A
C2104      N2121   1.157       .  T
C2105      N2123   1.157       .  T
C2106      C2107   1.411       .  A
C2106      C2111   1.451       .  S
C2107      C2108   1.418       .  A
C2107      C2113   1.451       .  S
C2108      C2109   1.418       .  A
C2109      C2110   1.413       .  A
C2109      C2112   1.451       .  S
C2110      C2114   1.451       .  S
C2111      N2118   1.157       .  T
C2112      N2119   1.157       .  T
C2113      N2117   1.157       .  T
C2114      N2120   1.157       .  T
C2115      N2124   1.157       .  T
C2116      N2122   1.157       .  T
C2125      C2126   1.409       .  A
C2125      C2130   1.410       .  A
C2125      C2143   1.453       .  S
C2126      C2131   1.499   1_554  S
C2126      C2127   1.409       .  A
C2127      C2128   1.415       .  A
C2127      C2132   1.450       .  S
C2128      C2129   1.421       .  A
C2128      C2144   1.451       .  S
C2129      C2130   1.421       .  A
C2130      C2133   1.451       .  S
C2131      C2134   1.410       .  A
C2131      C2138   1.410   1_556  A
C2132      N2149   1.157   1_554  T
C2133      N2151   1.157       .  T
C2134      C2135   1.412       .  A
C2134      C2139   1.451       .  S
C2135      C2136   1.416       .  A
C2135      C2141   1.450       .  S
C2136      C2137   1.418   1_556  A
C2137      C2138   1.412       .  A
C2137      C2140   1.451       .  S
C2138      C2142   1.451       .  S
C2139      N2146   1.157       .  T
C2140      N2147   1.157       .  T
C2141      N2145   1.157       .  T
C2142      N2148   1.157       .  T
C2143      N2152   1.157       .  T
C2144      N2150   1.158       .  T
C2153      C2154   1.410       .  A
C2153      C2158   1.411       .  A
C2153      C2171   1.451       .  S
C2154      C2159   1.496       .  S
C2154      C2155   1.410       .  A
C2155      C2156   1.412       .  A
C2155      C2160   1.450       .  S
C2156      C2157   1.415       .  A
C2156      C2172   1.451       .  S
C2157      C2158   1.417       .  A
C2158      C2161   1.452       .  S
C2159      C2162   1.408       .  A
C2159      C2166   1.408       .  A
C2160      N2177   1.157       .  T
C2161      N2179   1.157       .  T
C2162      C2163   1.411       .  A
C2162      C2167   1.452       .  S
C2163      C2164   1.421       .  A
C2163      C2169   1.451       .  S
C2164      C2165   1.422       .  A
C2165      C2166   1.413       .  A
C2165      C2168   1.451       .  S
C2166      C2170   1.451       .  S
C2167      N2174   1.157       .  T
C2168      N2175   1.157       .  T
C2169      N2173   1.157       .  T
C2170      N2176   1.157       .  T
C2171      N2180   1.157       .  T
C2172      N2178   1.157   1_556  T
C2181      C2182   1.410       .  A
C2181      C2186   1.410       .  A
C2181      C2199   1.451       .  S
C2182      C2187   1.499       .  S
C2182      C2183   1.412       .  A
C2183      C2184   1.413       .  A
C2183      C2188   1.450       .  S
C2184      C2185   1.414       .  A
C2184      C2200   1.450       .  S
C2185      C2186   1.416       .  A
C2186      C2189   1.452       .  S
C2187      C2190   1.412       .  A
C2187      C2194   1.410       .  A
C2188      N2205   1.157       .  T
C2189      N2207   1.158       .  T
C2190      C2191   1.413       .  A
C2190      C2195   1.450       .  S
C2191      C2192   1.414       .  A
C2191      C2197   1.451       .  S
C2192      C2193   1.414       .  A
C2193      C2194   1.411       .  A
C2193      C2196   1.451       .  S
C2194      C2198   1.450       .  S
C2195      N2202   1.157       .  T
C2196      N2203   1.157       .  T
C2197      N2201   1.157       .  T
C2198      N2204   1.157       .  T
C2199      N2208   1.157       .  T
C2200      N2206   1.157       .  T
