geometry optimzed in LAMMPS
_audit_creation_date              2020-12-01 
_audit_creation_method            'lammps2cif' 
_symmetry_space_group_name_H-M    'P1' 
_symmetry_Int_Tables_number       1 
_symmetry_cell_setting            triclinic 
loop_ 
_symmetry_equiv_pos_as_xyz 
  x,y,z 
_cell_length_a                    29.98499657 
_cell_length_b                    30.166708809059703 
_cell_length_c                    30.043217870794713 
_cell_angle_alpha                 90.97308454475319 
_cell_angle_beta                  90.34989445268216 
_cell_angle_gamma                 89.84353077090203 
loop_ 
_atom_site_label 
_atom_site_type_symbol 
_atom_site_fract_x 
_atom_site_fract_y 
_atom_site_fract_z 
_atom_site_charge 
C1          C  0.82868010  0.83153983  0.06075399     0.03000
C2          C  0.87452432  0.82598256  0.05220170    -0.13200
C3          C  0.88887821  0.81527259  0.00889677     0.00500
C4          C  0.85835396  0.79596637  0.97999727    -0.11700
C5          C  0.81752668  0.81728875  0.97835929     0.02900
C6          C  0.79960088  0.83146022  0.02133431    -0.11100
H7          H  0.89868155  0.83456757  0.07767044     0.08500
H8          H  0.87109461  0.78149202  0.94917382     0.06100
H9          H  0.76558189  0.84320331  0.02384030     0.05900
C10         C  0.76368940  0.28883362  0.07029368     0.03000
C11         C  0.75997678  0.31457550  0.02969119    -0.13200
C12         C  0.75682545  0.29170994  0.98657790     0.00500
C13         C  0.75315174  0.24604963  0.98636509    -0.11700
C14         C  0.76862097  0.22323157  0.02249970     0.02900
C15         C  0.76724696  0.24280409  0.06486294    -0.11100
H16         H  0.76164565  0.35037659  0.03141723     0.08500
H17         H  0.75071447  0.22839242  0.95459738     0.06100
H18         H  0.77667220  0.22281471  0.09309410     0.05900
C19         C  0.27320793  0.83409781  0.05784790     0.03000
C20         C  0.28800859  0.85240252  0.01589361    -0.13200
C21         C  0.27108849  0.83414674  0.97392120     0.00500
C22         C  0.23980619  0.79984507  0.97634738    -0.11700
C23         C  0.22181033  0.78639987  0.01700227     0.02900
C24         C  0.24480901  0.79768409  0.05594484    -0.11100
H25         H  0.31107871  0.87990930  0.01593106     0.08500
H26         H  0.22504166  0.78724879  0.94565492     0.06100
H27         H  0.23407482  0.78305399  0.08683289     0.05900
C28         C  0.80641932  0.12921193  0.78588320     0.03000
C29         C  0.84530745  0.13261839  0.76119620    -0.13200
C30         C  0.86963114  0.09586898  0.74699132     0.00500
C31         C  0.85170420  0.05335081  0.75463841    -0.11700
C32         C  0.81100901  0.04671760  0.77593969     0.02900
C33         C  0.78733304  0.08566172  0.79179202    -0.11100
H34         H  0.85736172  0.16536600  0.75370611     0.08500
H35         H  0.86972034  0.02389673  0.74489109     0.06100
H36         H  0.75555261  0.08226015  0.80822783     0.05900
C37         C  0.98286585  0.31163566  0.79202193     0.03000
C38         C  0.99177710  0.32732895  0.83540447    -0.13200
C39         C  0.03455549  0.32583470  0.85453182     0.00500
C40         C  0.07089524  0.32127452  0.82615455    -0.11700
C41         C  0.06700605  0.30517992  0.78225357     0.02900
C42         C  0.02167975  0.30039944  0.76440906    -0.11100
H43         H  0.96402430  0.33719862  0.85617141     0.08500
H44         H  0.10388503  0.32548539  0.84015688     0.06100
H45         H  0.01672259  0.28709840  0.73108904     0.05900
C46         C  0.98701029  0.88356153  0.77983617     0.03000
C47         C  0.99685443  0.92152763  0.75415307    -0.13200
C48         C  0.03499496  0.92166857  0.72575476     0.00500
C49         C  0.05817808  0.88193852  0.72166938    -0.11700
C50         C  0.06504849  0.85918643  0.76076040     0.02900
C51         C  0.02558496  0.85478603  0.78748438    -0.11100
H52         H  0.97548651  0.94985415  0.75720968     0.08500
H53         H  0.08284019  0.87890233  0.69558119     0.06100
H54         H  0.02468001  0.82807625  0.81042394     0.05900
C55         C  0.26619808  0.10907749  0.80067828     0.03000
C56         C  0.29803672  0.11011779  0.83444506    -0.13200
C57         C  0.30907658  0.07277641  0.85909257     0.00500
C58         C  0.29264924  0.03117070  0.84415766    -0.11700
C59         C  0.26379248  0.02692788  0.80731620     0.02900
C60         C  0.25034797  0.06671109  0.78497444    -0.11100
H61         H  0.31201937  0.14193995  0.84408367     0.08500
H62         H  0.30216733  0.00135395  0.86144002     0.06100
H63         H  0.22839216  0.06468473  0.75629239     0.05900
C64         C  0.99765975  0.80662648  0.22035502     0.03000
C65         C  0.99658521  0.77807315  0.18334347    -0.13200
C66         C  0.03175569  0.77728592  0.15298433     0.00500
C67         C  0.07477965  0.78923831  0.16813435    -0.11700
C68         C  0.08209955  0.80808019  0.21095888     0.02900
C69         C  0.04199704  0.81957385  0.23647116    -0.11100
H70         H  0.96436003  0.76606914  0.17167644     0.08500
H71         H  0.10247800  0.78637509  0.14538211     0.06100
H72         H  0.04525255  0.83759001  0.26775429     0.05900
C73         C  0.78824776  0.12026893  0.22212219     0.03000
C74         C  0.78605129  0.07864675  0.24658947    -0.13200
C75         C  0.77983388  0.03639011  0.22284526     0.00500
C76         C  0.76815125  0.03919267  0.17820155    -0.11700
C77         C  0.78209348  0.07562063  0.15390518     0.02900
C78         C  0.78903046  0.11643802  0.17545294    -0.11100
H79         H  0.79009845  0.07912458  0.28239646     0.08500
H80         H  0.76137231  0.00852828  0.15987645     0.06100
H81         H  0.79833142  0.14469283  0.15577794     0.05900
C82         C  0.98385742  0.26794386  0.27967373     0.03000
C83         C  0.98508884  0.22315010  0.26895685    -0.13200
C84         C  0.02037651  0.20412438  0.24538995     0.00500
C85         C  0.06093794  0.22734740  0.24312183    -0.11700
C86         C  0.06716624  0.26893941  0.26447193     0.02900
C87         C  0.02667073  0.29103866  0.28077214    -0.11100
H88         H  0.95510989  0.20390212  0.27413258     0.08500
H89         H  0.08837257  0.21303792  0.22487644     0.06100
H90         H  0.02825744  0.32510354  0.29249745     0.05900
Zr91       Zr  0.32552260  0.37703105  0.31561007     2.17500
O92         O  0.37920548  0.40708211  0.36611295    -0.51500
O93         O  0.30142537  0.45823381  0.31004710    -0.74700
O94         O  0.40927993  0.37476963  0.29545806    -0.81500
O95         O  0.24067426  0.33164433  0.40952638    -0.83200
O96         O  0.41737267  0.34801375  0.22463547    -0.78900
O97         O  0.30888628  0.36095362  0.39629707    -0.90500
O98         O  0.24830039  0.47830824  0.26037268    -0.76500
O99         O  0.31257138  0.39393479  0.23969510    -0.86000
O100        O  0.24644928  0.38829504  0.31078135    -0.85600
O101        O  0.34907792  0.31128176  0.27492501    -0.72400
O102        O  0.28843922  0.30991895  0.33731501    -0.84500
Zr103      Zr  0.22428098  0.27176400  0.21063017     2.26400
Zr104      Zr  0.33932237  0.33006950  0.19801011     2.06300
Zr105      Zr  0.20919473  0.32082218  0.33154458     2.10000
Zr106      Zr  0.23279057  0.40357327  0.23410813     1.78800
O107        O  0.18245396  0.26054583  0.37710320    -0.93300
O108        O  0.25221734  0.45082501  0.17209655    -0.41100
O109        O  0.19766757  0.33515599  0.25352130    -0.77800
O110        O  0.25943960  0.34153366  0.19185270    -0.96500
O111        O  0.30277752  0.26126197  0.21864452    -0.89800
O112        O  0.23292218  0.25672577  0.28780864    -0.92600
C113        C  0.27567364  0.48830715  0.29145740     1.01100
C114        C  0.27925336  0.34578340  0.42377695     1.14100
C115        C  0.43474536  0.36202533  0.26207728     1.04900
O116        O  0.36498110  0.39234205  0.15450237    -0.94800
O117        O  0.31531691  0.31825331  0.11905481    -0.90500
O118        O  0.25005918  0.28230947  0.13134426    -0.83700
C119        C  0.27914063  0.29998459  0.10435972     1.11500
O120        O  0.27023342  0.20531925  0.35320237    -0.96700
Zr121      Zr  0.31091547  0.24502020  0.29606475     1.88900
O122        O  0.23591980  0.18868731  0.22115019    -0.73400
O123        O  0.38740374  0.27364282  0.16450231    -0.52700
O124        O  0.38119134  0.20585910  0.28496106    -0.97300
O125        O  0.35706688  0.24042606  0.36247086    -0.54500
O126        O  0.29741947  0.17261796  0.26189019    -0.73900
C127        C  0.26331331  0.16018713  0.23936114     0.98400
O128        O  0.17393704  0.24493642  0.15291279    -0.62700
O129        O  0.15983080  0.37699161  0.36369159    -0.57500
O130        O  0.14303557  0.27382816  0.23451280    -0.94200
O131        O  0.13184681  0.30248452  0.30423701    -0.92600
O132        O  0.16478661  0.43162714  0.26859039    -0.93000
O133        O  0.17427858  0.40393010  0.17742462    -0.91800
C134        C  0.11666265  0.28450129  0.26763109     1.17300
H135        H  0.23657296  0.41230419  0.33000998     0.33200
H136        H  0.25124971  0.35172899  0.16275189     0.44100
H137        H  0.21561799  0.23099230  0.29537683     0.37600
H138        H  0.37944233  0.30328833  0.28144891     0.34100
H139        H  0.28373004  0.45910501  0.17759667     0.25900
H140        H  0.40504189  0.26190996  0.18966726     0.31800
H141        H  0.39600630  0.22166993  0.26057534     0.37700
H142        H  0.15583823  0.45731150  0.25046634     0.32200
H143        H  0.13697170  0.35992704  0.37970279     0.31100
H144        H  0.16585591  0.27541251  0.40154895     0.32700
H145        H  0.35392128  0.20965556  0.37294898     0.31700
H146        H  0.16407540  0.37277619  0.17514592     0.35700
H147        H  0.15628143  0.22153387  0.16725260     0.28400
H148        H  0.38881025  0.38241746  0.38528113     0.32700
H149        H  0.26806961  0.17423577  0.34234923     0.35500
H150        H  0.17758049  0.39164632  0.38758958     0.28100
H151        H  0.15269795  0.26962684  0.14813453     0.41000
H152        H  0.37258038  0.41580379  0.17669138     0.31100
H153        H  0.25335464  0.43082349  0.14566088     0.38700
H154        H  0.34169612  0.25886461  0.38526045     0.30500
H155        H  0.36714589  0.24907876  0.15578661     0.30600
H156        H  0.35873413  0.42519149  0.38444451     0.30900
C157        C  0.25097286  0.11089166  0.24033210     0.03000
C158        C  0.20521930  0.10228885  0.24353796    -0.13200
C159        C  0.18894415  0.05922433  0.24796693     0.00500
C160        C  0.21844199  0.02620023  0.26058999    -0.11700
C161        C  0.26328426  0.02861954  0.24803983     0.02900
C162        C  0.28090608  0.07265791  0.24052035    -0.11100
H163        H  0.18186129  0.12899094  0.23907307     0.08500
H164        H  0.20428593  0.99401271  0.26760250     0.06100
H165        H  0.31603716  0.07695210  0.23390577     0.05900
Zr166      Zr  0.34230831  0.77689438  0.32478660     2.17500
O167        O  0.39280188  0.73162502  0.36914925    -0.51500
O168        O  0.32063795  0.78421399  0.40558927    -0.74700
O169        O  0.42369004  0.80238055  0.31834086    -0.81500
O170        O  0.25607390  0.68120387  0.28142752    -0.83200
O171        O  0.43068859  0.87160621  0.28939069    -0.78900
O172        O  0.32315192  0.69492815  0.31485311    -0.90500
O173        O  0.26416475  0.83112562  0.42296559    -0.76500
O174        O  0.32760181  0.85369322  0.33986412    -0.86000
O175        O  0.26300990  0.78162497  0.33352378    -0.85600
O176        O  0.36378146  0.81710389  0.25885127    -0.72400
O177        O  0.30739252  0.75110646  0.25606431    -0.84500
Zr178      Zr  0.23676386  0.87332313  0.21493832     2.26400
Zr179      Zr  0.35101167  0.89457696  0.27511591     2.06300
Zr180      Zr  0.22779077  0.75654258  0.26503805     2.10000
Zr181      Zr  0.24830910  0.85815794  0.34881348     1.78800
O182        O  0.20873058  0.70827667  0.20190132    -0.93300
O183        O  0.27735592  0.92060122  0.39258548    -0.41100
O184        O  0.21376630  0.83346395  0.28011498    -0.77800
O185        O  0.27094241  0.89751405  0.28485741    -0.96500
O186        O  0.31602835  0.86929675  0.20616302    -0.89800
O187        O  0.25094402  0.79659174  0.20057585    -0.92600
C188        C  0.29287743  0.80195915  0.43409854     1.01100
C189        C  0.29215743  0.66743820  0.30038711     1.14100
C190        C  0.44826166  0.83486822  0.30317824     1.04900
O191        O  0.37386923  0.94047765  0.33870825    -0.94800
O192        O  0.31959810  0.97018330  0.26074883    -0.90500
O193        O  0.25744756  0.95432427  0.21925577    -0.83700
C194        C  0.28374918  0.98244703  0.23993934     1.11500
O195        O  0.38005229  0.72849953  0.19165152    -0.96700
Zr196      Zr  0.32977842  0.79217038  0.19168662     1.88900
O197        O  0.25304996  0.86166817  0.13213743    -0.73400
O198        O  0.39771838  0.93083918  0.22066699    -0.52700
O199        O  0.40405949  0.80607452  0.16260811    -0.97300
O200        O  0.29962542  0.73676063  0.13988739    -0.54500
O201        O  0.32063771  0.82983905  0.12123904    -0.73900
C202        C  0.28462273  0.84660646  0.10593500     0.98400
O203        O  0.17218746  0.91947977  0.20172794    -0.62700
O204        O  0.17853876  0.72063508  0.31749771    -0.57500
O205        O  0.15575842  0.84640318  0.21129566    -0.94200
O206        O  0.14998921  0.78012758  0.24594333    -0.92600
O207        O  0.17909041  0.83520153  0.38338002    -0.93000
O208        O  0.19120823  0.91584917  0.34938615    -0.91800
C209        C  0.13193630  0.81312132  0.22529875     1.17300
H210        H  0.25295094  0.76333629  0.35754371     0.33200
H211        H  0.26075384  0.92664903  0.29342304     0.44100
H212        H  0.23512822  0.78656485  0.17419259     0.37600
H213        H  0.39363207  0.81132947  0.24913658     0.34100
H214        H  0.27458159  0.94659566  0.37307619     0.25900
H215        H  0.42117340  0.94599749  0.23853109     0.31800
H216        H  0.40498747  0.83844584  0.15789185     0.37700
H217        H  0.16073317  0.82325917  0.35847403     0.32200
H218        H  0.16154211  0.74512202  0.33176068     0.31100
H219        H  0.17634655  0.71251783  0.19696393     0.32700
H220        H  0.29709876  0.70943798  0.15748154     0.31700
H221        H  0.17905520  0.91563037  0.31866082     0.35700
H222        H  0.16384552  0.93084467  0.23165683     0.28400
H223        H  0.40315987  0.75144618  0.39369718     0.32700
H224        H  0.39086618  0.72656343  0.22277533     0.35500
H225        H  0.15636953  0.70479070  0.29859764     0.28100
H226        H  0.18484887  0.94525758  0.18685969     0.41000
H227        H  0.38729849  0.91957217  0.36005520     0.31100
H228        H  0.25501005  0.92585346  0.41624610     0.38700
H229        H  0.32408823  0.73055327  0.11865845     0.30500
H230        H  0.41349625  0.90630981  0.20508244     0.30600
H231        H  0.41958823  0.72644372  0.35082815     0.30900
Zr232      Zr  0.82869846  0.28102769  0.22185232     2.17500
O233        O  0.88291880  0.26598975  0.16386531    -0.51500
O234        O  0.81362058  0.19799300  0.22085436    -0.74700
O235        O  0.90905495  0.27563521  0.24916477    -0.81500
O236        O  0.73559421  0.32683791  0.13639957    -0.83200
O237        O  0.91990177  0.30105324  0.32024515    -0.78900
O238        O  0.80083384  0.28839737  0.14261073    -0.90500
O239        O  0.76236356  0.17891903  0.27217024    -0.76500
O240        O  0.81647672  0.25858467  0.29652621    -0.86000
O241        O  0.74978375  0.27341177  0.22791257    -0.85600
O242        O  0.85406213  0.34171017  0.26933235    -0.72400
O243        O  0.79516515  0.35297293  0.20804791    -0.84500
Zr244      Zr  0.72763225  0.38437561  0.33714198     2.26400
Zr245      Zr  0.84172815  0.31884256  0.34435793     2.06300
Zr246      Zr  0.71547013  0.34505594  0.21430521     2.10000
Zr247      Zr  0.73757250  0.25121132  0.30261503     1.78800
O248        O  0.70110658  0.41003057  0.16926532    -0.93300
O249        O  0.75800817  0.20826536  0.36793341    -0.41100
O250        O  0.70314328  0.32291312  0.29007553    -0.77800
O251        O  0.76149031  0.31188758  0.35031524    -0.96500
O252        O  0.80713842  0.38988444  0.33144284    -0.89800
O253        O  0.74137510  0.40530668  0.26185972    -0.92600
C254        C  0.78947861  0.16829177  0.24083427     1.01100
C255        C  0.76800382  0.30455384  0.11896451     1.14100
C256        C  0.93524398  0.28477097  0.28316603     1.04900
O257        O  0.85945940  0.25091302  0.38340411    -0.94800
O258        O  0.81702693  0.33272227  0.42171208    -0.90500
O259        O  0.75535198  0.37689356  0.41807373    -0.83700
C260        C  0.78627646  0.35627085  0.44079668     1.11500
O261        O  0.88174191  0.41868063  0.20432190    -0.96700
Zr262      Zr  0.82090909  0.41204145  0.25725702     1.88900
O263        O  0.74001227  0.46903430  0.32636220    -0.73400
O264        O  0.89784150  0.36592082  0.37992575    -0.52700
O265        O  0.89135669  0.43886814  0.28830794    -0.97300
O266        O  0.79721763  0.46446181  0.20109157    -0.54500
O267        O  0.81124506  0.47751965  0.30491616    -0.73900
C268        C  0.77393344  0.49456596  0.31611004     0.98400
O269        O  0.68067501  0.40571901  0.39892988    -0.62700
O270        O  0.65511703  0.29941305  0.18399538    -0.57500
O271        O  0.64492044  0.37423129  0.31029296    -0.94200
O272        O  0.63805082  0.36511494  0.23535321    -0.92600
O273        O  0.67790878  0.22592864  0.35056830    -0.93000
O274        O  0.67003856  0.22807004  0.26314514    -0.91800
C275        C  0.62005707  0.36890019  0.27405325     1.17300
H276        H  0.73905389  0.25119834  0.20696855     0.33200
H277        H  0.75313517  0.30278188  0.37967294     0.44100
H278        H  0.72624966  0.43242266  0.25409954     0.37600
H279        H  0.88489516  0.34859767  0.26415968     0.34100
H280        H  0.78552069  0.19216280  0.35929837     0.25900
H281        H  0.88212887  0.39413203  0.38658829     0.31800
H282        H  0.89422293  0.46975383  0.27804924     0.37700
H283        H  0.67448698  0.19386814  0.34371201     0.32200
H284        H  0.64671874  0.31350432  0.15560813     0.31100
H285        H  0.67801589  0.42717677  0.18554902     0.32700
H286        H  0.78623420  0.44550000  0.17618076     0.31700
H287        H  0.67597664  0.19721283  0.25305637     0.35700
H288        H  0.65158474  0.40616692  0.38375277     0.28400
H289        H  0.89805993  0.23813148  0.17214446     0.32700
H290        H  0.87629303  0.39480567  0.18195419     0.35500
H291        H  0.66909037  0.27095128  0.17492737     0.28100
H292        H  0.67813800  0.38065007  0.41949616     0.41000
H293        H  0.87515632  0.26093542  0.41084249     0.31100
H294        H  0.76796690  0.22982747  0.39105439     0.38700
H295        H  0.82470571  0.47821921  0.18966871     0.30500
H296        H  0.90339688  0.35263526  0.40936207     0.30600
H297        H  0.90588542  0.28940276  0.16679825     0.30900
Zr298      Zr  0.73785265  0.78333506  0.32856108     2.17500
O299        O  0.68404089  0.73901505  0.36530318    -0.51500
O300        O  0.73878671  0.81023563  0.40967342    -0.74700
O301        O  0.75785459  0.70043804  0.32592539    -0.81500
O302        O  0.64477887  0.86683243  0.28301988    -0.83200
O303        O  0.82807432  0.69152235  0.29855909    -0.78900
O304        O  0.65730918  0.79733119  0.30771564    -0.90500
O305        O  0.79207204  0.86080301  0.42813202    -0.76500
O306        O  0.81518703  0.79380900  0.34534336    -0.86000
O307        O  0.74636050  0.86166230  0.33938931    -0.85600
O308        O  0.77699802  0.75894902  0.26213373    -0.72400
O309        O  0.71460428  0.81864019  0.26065248    -0.84500
Zr310      Zr  0.84540981  0.88119570  0.22190870     2.26400
Zr311      Zr  0.85468180  0.76751744  0.28037329     2.06300
Zr312      Zr  0.72313581  0.89644837  0.27193589     2.10000
Zr313      Zr  0.82414120  0.87248961  0.35476300     1.78800
O314        O  0.67827631  0.92292511  0.20994672    -0.93300
O315        O  0.88544439  0.84622367  0.40104864    -0.41100
O316        O  0.80206459  0.90533482  0.28598039    -0.77800
O317        O  0.86578423  0.84617009  0.29150306    -0.96500
O318        O  0.83303610  0.80344740  0.21188611    -0.89800
O319        O  0.76660241  0.87351234  0.20743173    -0.92600
C320        C  0.75822837  0.83736352  0.43832030     1.01100
C321        C  0.63007224  0.82807030  0.29439358     1.14100
C322        C  0.79088270  0.67503511  0.31248059     1.04900
O323        O  0.89991120  0.74324792  0.34302978    -0.94800
O324        O  0.93222853  0.78646331  0.26117328    -0.90500
O325        O  0.92663758  0.85043640  0.22215943    -0.83700
C326        C  0.95022684  0.81726565  0.23812681     1.11500
O327        O  0.69399888  0.74322922  0.19176716    -0.96700
Zr328      Zr  0.75501821  0.79632179  0.19552978     1.88900
O329        O  0.83973957  0.85905705  0.13867588    -0.73400
O330        O  0.88672115  0.71675683  0.22515207    -0.52700
O331        O  0.77458853  0.72834918  0.15533403    -0.97300
O332        O  0.69345659  0.83108626  0.15574751    -0.54500
O333        O  0.78054245  0.81519682  0.12172350    -0.73900
C334        C  0.81473356  0.83708077  0.10980287     0.98400
O335        O  0.89939852  0.94046331  0.21204088    -0.62700
O336        O  0.68997742  0.94567789  0.32779742    -0.57500
O337        O  0.81624688  0.96227063  0.22311093    -0.94200
O338        O  0.74978872  0.97234786  0.25907791    -0.92600
O339        O  0.80148803  0.94405759  0.38599823    -0.93000
O340        O  0.88315823  0.92791668  0.35348928    -0.91800
C341        C  0.78374844  0.98791163  0.23848572     1.17300
H342        H  0.72786387  0.87351455  0.36294266     0.33200
H343        H  0.89648504  0.85246423  0.29889669     0.44100
H344        H  0.75812674  0.89016414  0.18150890     0.37600
H345        H  0.76993613  0.72887790  0.25385484     0.34100
H346        H  0.91193695  0.84648497  0.38154404     0.25900
H347        H  0.90935061  0.69957901  0.24175957     0.31800
H348        H  0.80181937  0.71750766  0.17042538     0.37700
H349        H  0.81841659  0.94716545  0.41428496     0.32200
H350        H  0.71554458  0.96126997  0.34193605     0.31100
H351        H  0.65541542  0.94224069  0.22398115     0.32700
H352        H  0.66787371  0.82986873  0.17635995     0.31700
H353        H  0.88394693  0.93777916  0.32223675     0.35700
H354        H  0.90853283  0.94933462  0.24262562     0.28400
H355        H  0.66604802  0.72500273  0.34134371     0.32700
H356        H  0.68412650  0.74032852  0.22297468     0.35500
H357        H  0.67436864  0.96874623  0.31051039     0.28100
H358        H  0.92638934  0.92664835  0.19903903     0.41000
H359        H  0.92168832  0.76740581  0.34829364     0.31100
H360        H  0.89080453  0.87052705  0.42298945     0.38700
H361        H  0.68577561  0.80994666  0.13132940     0.30500
H362        H  0.86290215  0.69506743  0.21810974     0.30600
H363        H  0.66452875  0.76241295  0.37796719     0.30900
C364        C  0.26419303  0.30248405  0.05505882     0.03000
C365        C  0.21803561  0.30014933  0.05119585    -0.13200
C366        C  0.20185814  0.26938778  0.02112506     0.00500
C367        C  0.22318219  0.26366870  0.98057822    -0.11700
C368        C  0.26380802  0.28520985  0.97233142     0.02900
C369        C  0.28806737  0.30000899  0.01259294    -0.11100
H370        H  0.19729308  0.30768423  0.07985846     0.08500
H371        H  0.20866054  0.24094825  0.95632772     0.06100
H372        H  0.32318661  0.30787669  0.01109212     0.05900
Zr373      Zr  0.22129377  0.26530139  0.81425372     2.17500
O374        O  0.16798834  0.23165238  0.86450316    -0.51500
O375        O  0.23526721  0.18295134  0.80738918    -0.74700
O376        O  0.14008688  0.27302652  0.79195200    -0.81500
O377        O  0.31376046  0.30223345  0.90880662    -0.83200
O378        O  0.12858360  0.30942016  0.72694815    -0.78900
O379        O  0.24408924  0.27639607  0.89432718    -0.90500
O380        O  0.28106335  0.16566566  0.74989601    -0.76500
O381        O  0.23045190  0.25166312  0.73643280    -0.86000
O382        O  0.29946864  0.25074745  0.80644474    -0.85600
O383        O  0.20047726  0.33352070  0.77749102    -0.72400
O384        O  0.26162591  0.33055082  0.84010483    -0.84500
Zr385      Zr  0.32530681  0.36914724  0.71499973     2.26400
Zr386      Zr  0.20745297  0.31834685  0.69848222     2.06300
Zr387      Zr  0.34033211  0.31602845  0.83138139     2.10000
Zr388      Zr  0.30865295  0.23755132  0.72862265     1.78800
O389        O  0.37008855  0.37318496  0.88150984    -0.93300
O390        O  0.28221486  0.19721563  0.66251945    -0.41100
O391        O  0.34946239  0.30272768  0.75234118    -0.77800
O392        O  0.28629001  0.30274020  0.69131232    -0.96500
O393        O  0.24765586  0.38412020  0.72403774    -0.89800
O394        O  0.31751458  0.38213047  0.79299041    -0.92600
C395        C  0.25702803  0.15446303  0.78272883     1.01100
C396        C  0.27563505  0.28794302  0.92233762     1.14100
C397        C  0.11353813  0.29231596  0.76339104     1.04900
O398        O  0.17835328  0.25398985  0.65789595    -0.94800
O399        O  0.23569707  0.33154562  0.62057208    -0.90500
O400        O  0.30257694  0.36552498  0.63354003    -0.83700
C401        C  0.27270188  0.34839353  0.60624291     1.11500
O402        O  0.18130625  0.40033655  0.85817662    -0.96700
Zr403      Zr  0.24022784  0.39739294  0.80262640     1.88900
O404        O  0.31922150  0.45095730  0.73111602    -0.73400
O405        O  0.16172782  0.37303686  0.66067695    -0.52700
O406        O  0.17621303  0.43990150  0.77667050    -0.97300
O407        O  0.26741351  0.43319615  0.87096068    -0.54500
O408        O  0.26686083  0.47016746  0.78211373    -0.73900
C409        C  0.29838841  0.48024447  0.75578854     0.98400
O410        O  0.37720597  0.39082467  0.65818571    -0.62700
O411        O  0.38710208  0.25554875  0.85751267    -0.57500
O412        O  0.40536210  0.36800323  0.74181805    -0.94200
O413        O  0.41778038  0.33764224  0.80942680    -0.92600
O414        O  0.37610161  0.20180542  0.75632360    -0.93000
O415        O  0.36498649  0.22811222  0.67108817    -0.91800
C416        C  0.43216680  0.35753075  0.77448361     1.17300
H417        H  0.30857934  0.22539992  0.82351677     0.33200
H418        H  0.29421666  0.29378928  0.66156557     0.44100
H419        H  0.33578385  0.40679900  0.80274571     0.37600
H420        H  0.17131799  0.34390484  0.78570751     0.34100
H421        H  0.25170467  0.18739617  0.66995142     0.25900
H422        H  0.13797768  0.35548529  0.64567075     0.31800
H423        H  0.18172071  0.44450485  0.74462794     0.37700
H424        H  0.36583577  0.17480999  0.77143276     0.32200
H425        H  0.41115641  0.25260842  0.83522874     0.31100
H426        H  0.34457196  0.38284310  0.90006715     0.32700
H427        H  0.25157456  0.46200906  0.87261433     0.31700
H428        H  0.36958858  0.25818073  0.65926533     0.35700
H429        H  0.39548610  0.41475942  0.67182472     0.28400
H430        H  0.18612951  0.21218825  0.88371227     0.32700
H431        H  0.17565063  0.43221193  0.86425908     0.35500
H432        H  0.40208006  0.26774547  0.88449942     0.28100
H433        H  0.39720846  0.36475063  0.65576317     0.41000
H434        H  0.19359359  0.25411445  0.62876434     0.31100
H435        H  0.27755806  0.21992452  0.63955042     0.38700
H436        H  0.29870640  0.44131122  0.86483901     0.30500
H437        H  0.14626288  0.38943776  0.68489341     0.30600
H438        H  0.15043840  0.21056847  0.84588680     0.30900
Zr439      Zr  0.22128731  0.86887560  0.82147976     2.17500
O440        O  0.16671284  0.90619092  0.86770856    -0.51500
O441        O  0.23971112  0.95069757  0.81898277    -0.74700
O442        O  0.24521870  0.86006679  0.90216710    -0.81500
O443        O  0.13176450  0.82721107  0.73327466    -0.83200
O444        O  0.31745753  0.83602059  0.90751666    -0.78900
O445        O  0.13806793  0.86164713  0.80115262    -0.90500
O446        O  0.27005896  0.96888986  0.75311386    -0.76500
O447        O  0.29873090  0.88387987  0.80947484    -0.86000
O448        O  0.22677830  0.88205583  0.74302675    -0.85600
O449        O  0.26291602  0.80183463  0.84016319    -0.72400
O450        O  0.19756737  0.80306784  0.78093355    -0.84500
Zr451      Zr  0.32234987  0.76632253  0.71347598     2.26400
Zr452      Zr  0.34144394  0.81836102  0.82904131     2.06300
Zr453      Zr  0.20603810  0.81512958  0.70272200     2.10000
Zr454      Zr  0.30340259  0.89838597  0.73172232     1.78800
O455        O  0.15901486  0.75437586  0.67600056    -0.93300
O456        O  0.36399024  0.93984727  0.76764522    -0.41100
O457        O  0.28248136  0.83189239  0.69173558    -0.77800
O458        O  0.34544937  0.83443516  0.75092882    -0.96500
O459        O  0.31549462  0.75209736  0.79071641    -0.89800
O460        O  0.24587226  0.74949616  0.72275781    -0.92600
C461        C  0.25495177  0.97979340  0.79139316     1.01100
C462        C  0.11412491  0.84599934  0.76776762     1.14100
C463        C  0.27993913  0.84780353  0.92567297     1.04900
O464        O  0.39153189  0.87235828  0.86360612    -0.94800
O465        O  0.41828260  0.80643672  0.79409783    -0.90500
O466        O  0.40260628  0.77311498  0.72753551    -0.83700
C467        C  0.43079056  0.78995991  0.75561507     1.11500
O468        O  0.18322254  0.73593521  0.85986305    -0.96700
Zr469      Zr  0.23748344  0.73734825  0.80029238     1.88900
O470        O  0.31615095  0.68585991  0.72998390    -0.73400
O471        O  0.37390685  0.75763782  0.87126949    -0.52700
O472        O  0.25827316  0.69036365  0.86223650    -0.97300
O473        O  0.17046397  0.70424745  0.76784461    -0.54500
O474        O  0.26240294  0.66429241  0.77708394    -0.73900
C475        C  0.29527338  0.65549354  0.75171595     0.98400
O476        O  0.36391608  0.72298624  0.65846902    -0.62700
O477        O  0.17067763  0.86570655  0.65144775    -0.57500
O478        O  0.30344058  0.77673121  0.63395478    -0.94200
O479        O  0.23268578  0.80244806  0.62539717    -0.92600
O480        O  0.28700610  0.93832520  0.66389379    -0.93000
O481        O  0.36187654  0.90497467  0.67607348    -0.91800
C482        C  0.26991159  0.78814029  0.60927354     1.17300
H483        H  0.20799826  0.90637938  0.73418748     0.33200
H484        H  0.37411198  0.84486756  0.74173585     0.44100
H485        H  0.23714213  0.72403273  0.70485867     0.37600
H486        H  0.25782668  0.79152657  0.86978907     0.34100
H487        H  0.35010001  0.95683370  0.79242193     0.25900
H488        H  0.35832962  0.75842253  0.90022844     0.31800
H489        H  0.27549257  0.70992944  0.88273800     0.37700
H490        H  0.25411236  0.93871096  0.66188795     0.32200
H491        H  0.19553535  0.87990827  0.63553579     0.31100
H492        H  0.17463527  0.74162809  0.64980406     0.32700
H493        H  0.14728217  0.72757159  0.77047399     0.31700
H494        H  0.39053984  0.90430011  0.69258049     0.35700
H495        H  0.38603847  0.74374446  0.64659234     0.28400
H496        H  0.18470161  0.92455367  0.88866347     0.32700
H497        H  0.16771168  0.76483403  0.85767124     0.35500
H498        H  0.15591557  0.84650203  0.62876010     0.28100
H499        H  0.38189883  0.70154289  0.67558651     0.41000
H500        H  0.40884107  0.85515635  0.88559930     0.31100
H501        H  0.38256392  0.91725079  0.78252171     0.38700
H502        H  0.16135275  0.68140554  0.78922235     0.30500
H503        H  0.36339011  0.72995668  0.85655175     0.30600
H504        H  0.15481380  0.88186801  0.88566172     0.30900
Zr505      Zr  0.82368999  0.28507383  0.83568718     2.17500
O506        O  0.87572635  0.25181227  0.88821220    -0.51500
O507        O  0.81384497  0.20300324  0.81797568    -0.74700
O508        O  0.79379126  0.29103345  0.91499047    -0.81500
O509        O  0.91659847  0.31834771  0.74328406    -0.83200
O510        O  0.72916613  0.33050451  0.92283919    -0.78900
O511        O  0.90549464  0.29604428  0.81429602    -0.90500
O512        O  0.75266124  0.18596704  0.77620741    -0.76500
O513        O  0.74538980  0.27448871  0.82454894    -0.86000
O514        O  0.81292220  0.26812508  0.75829860    -0.85600
O515        O  0.78722481  0.35449255  0.85597871    -0.72400
O516        O  0.84879500  0.34931727  0.79611363    -0.84500
Zr517      Zr  0.72209971  0.39020372  0.72730060     2.26400
Zr518      Zr  0.70824799  0.34277597  0.84494332     2.06300
Zr519      Zr  0.83837941  0.33135193  0.71855407     2.10000
Zr520      Zr  0.73452880  0.25821435  0.74716229     1.78800
O521        O  0.89024765  0.37997094  0.68082069    -0.93300
O522        O  0.66701265  0.22327315  0.77497715    -0.41100
O523        O  0.75949436  0.32153968  0.70630178    -0.77800
O524        O  0.69735851  0.32531343  0.76689197    -0.96500
O525        O  0.73296259  0.40661120  0.80460100    -0.89800
O526        O  0.80078037  0.40016584  0.73835724    -0.92600
C527        C  0.78776496  0.17453043  0.79733214     1.01100
C528        C  0.93212974  0.30694852  0.78159231     1.14100
C529        C  0.76160669  0.30816243  0.93936978     1.04900
O530        O  0.66040965  0.28773507  0.87876097    -0.94800
O531        O  0.63012202  0.35443126  0.82237702    -0.90500
O532        O  0.64001588  0.38666280  0.75477313    -0.83700
C533        C  0.61414075  0.37282597  0.78741632     1.11500
O534        O  0.86853790  0.42747861  0.87266053    -0.96700
Zr535      Zr  0.81111923  0.41769001  0.81546096     1.88900
O536        O  0.73789591  0.47234525  0.73901332    -0.73400
O537        O  0.68171939  0.40811926  0.88561993    -0.52700
O538        O  0.78456376  0.45783144  0.88122297    -0.97300
O539        O  0.87639799  0.45166684  0.78219782    -0.54500
O540        O  0.78630086  0.49146112  0.79399293    -0.73900
C541        C  0.75961752  0.50208269  0.76256150     0.98400
O542        O  0.67875563  0.43677515  0.67858735    -0.62700
O543        O  0.86409780  0.26593654  0.67722947    -0.57500
O544        O  0.74577009  0.37936727  0.64468003    -0.94200
O545        O  0.81251470  0.34286456  0.64249642    -0.92600
O546        O  0.76042432  0.21371381  0.68397746    -0.93000
O547        O  0.68014348  0.25317771  0.68649617    -0.91800
C548        C  0.77989009  0.36230872  0.62274591     1.17300
H549        H  0.82955593  0.24220487  0.74897086     0.33200
H550        H  0.66738553  0.31666306  0.75955645     0.44100
H551        H  0.81122884  0.42410300  0.72024615     0.37600
H552        H  0.79414362  0.36350815  0.88612180     0.34100
H553        H  0.67346263  0.21726250  0.80667099     0.25900
H554        H  0.65539048  0.39767870  0.90214210     0.31800
H555        H  0.75481157  0.46939399  0.87276876     0.37700
H556        H  0.74295502  0.18593574  0.68506401     0.32200
H557        H  0.83951643  0.25854770  0.65626767     0.31100
H558        H  0.87493265  0.40893464  0.67860339     0.32700
H559        H  0.90216244  0.43374781  0.79226710     0.31700
H560        H  0.65548033  0.27348424  0.69484484     0.35700
H561        H  0.66343365  0.45762584  0.69923934     0.28400
H562        H  0.85809632  0.22964814  0.90446342     0.32700
H563        H  0.85998191  0.40767664  0.89710253     0.35500
H564        H  0.88831503  0.27693994  0.65811122     0.28100
H565        H  0.70067793  0.45533163  0.66297488     0.41000
H566        H  0.68031854  0.26246429  0.88557857     0.31100
H567        H  0.64378663  0.24661939  0.77592678     0.38700
H568        H  0.87980044  0.48058820  0.79791117     0.30500
H569        H  0.70454353  0.41381903  0.90894889     0.30600
H570        H  0.88220314  0.27549643  0.91051942     0.30900
Zr571      Zr  0.82299712  0.89199312  0.82852274     2.17500
O572        O  0.83520171  0.94691406  0.88742713    -0.51500
O573        O  0.90846921  0.89197314  0.81119451    -0.74700
O574        O  0.82054327  0.85870278  0.90779582    -0.81500
O575        O  0.77780553  0.98171490  0.74215205    -0.83200
O576        O  0.78105418  0.79414618  0.91151339    -0.78900
O577        O  0.81399197  0.97296224  0.80830407    -0.90500
O578        O  0.92431822  0.83914739  0.75885210    -0.76500
O579        O  0.83817764  0.81519767  0.81424645    -0.86000
O580        O  0.83425616  0.88618069  0.74951080    -0.85600
O581        O  0.75581095  0.85098915  0.84678471    -0.72400
O582        O  0.75455601  0.91255612  0.78999428    -0.84500
Zr583      Zr  0.71848912  0.78791602  0.71918423     2.26400
Zr584      Zr  0.77198472  0.77325302  0.83316029     2.06300
Zr585      Zr  0.76609182  0.90607769  0.71108138     2.10000
Zr586      Zr  0.85172188  0.81023603  0.73601442     1.78800
O587        O  0.70231772  0.94954870  0.68608895    -0.93300
O588        O  0.89401738  0.74866149  0.76686142    -0.41100
O589        O  0.78370704  0.82950033  0.69743406    -0.77800
O590        O  0.78794821  0.76749292  0.75482897    -0.96500
O591        O  0.70385554  0.79530059  0.79670210    -0.89800
O592        O  0.70141605  0.86448135  0.73189606    -0.92600
C593        C  0.93707257  0.87027837  0.78550400     1.01100
C594        C  0.79739306  0.99785750  0.77724703     1.14100
C595        C  0.80281033  0.82593639  0.93041694     1.04900
O596        O  0.83402959  0.73162605  0.86444209    -0.94800
O597        O  0.76386487  0.69539705  0.80591316    -0.90500
O598        O  0.72711625  0.70773861  0.74092097    -0.83700
C599        C  0.74604143  0.68103647  0.76926411     1.11500
O600        O  0.68098860  0.92977312  0.86731888    -0.96700
Zr601      Zr  0.68857438  0.87235234  0.80987259     1.88900
O602        O  0.63627009  0.79898552  0.72985148    -0.73400
O603        O  0.71174035  0.73586087  0.87135120    -0.52700
O604        O  0.65447813  0.84481278  0.87738716    -0.97300
O605        O  0.64855969  0.93791305  0.78480931    -0.54500
O606        O  0.61539769  0.84518244  0.78627104    -0.73900
C607        C  0.60590663  0.81928991  0.75344159     0.98400
O608        O  0.68615398  0.73528147  0.66618348    -0.62700
O609        O  0.81799005  0.94641812  0.66468220    -0.57500
O610        O  0.72159593  0.81071959  0.63884267    -0.94200
O611        O  0.75235391  0.87934467  0.63287254    -0.92600
O612        O  0.88773094  0.83804223  0.66968620    -0.93000
O613        O  0.86209515  0.75421187  0.67754080    -0.91800
C614        C  0.73449219  0.84411768  0.61514326     1.17300
H615        H  0.85824292  0.90515282  0.74019390     0.33200
H616        H  0.79825900  0.73857700  0.74559393     0.44100
H617        H  0.67573008  0.87327359  0.71458639     0.37600
H618        H  0.74729705  0.85730346  0.87706982     0.34100
H619        H  0.87628684  0.72174577  0.75997304     0.25900
H620        H  0.72589954  0.72294653  0.89803195     0.31800
H621        H  0.62278488  0.85391887  0.87546428     0.37700
H622        H  0.86354384  0.85290245  0.65300306     0.32200
H623        H  0.82734425  0.92507072  0.64116572     0.31100
H624        H  0.70818542  0.95538850  0.65433494     0.32700
H625        H  0.63207415  0.92829527  0.75769533     0.31700
H626        H  0.83387417  0.75457868  0.66025674     0.35700
H627        H  0.71050568  0.71472581  0.65751984     0.28400
H628        H  0.80652745  0.96286118  0.89123167     0.32700
H629        H  0.70966491  0.94596829  0.86688889     0.35500
H630        H  0.79915621  0.96824378  0.64895175     0.28100
H631        H  0.66511867  0.71724440  0.68352825     0.41000
H632        H  0.82029973  0.71259503  0.88710102     0.31100
H633        H  0.92077261  0.74578662  0.74786937     0.38700
H634        H  0.67208809  0.95785310  0.77382926     0.30500
H635        H  0.69260529  0.76005599  0.88317143     0.30600
H636        H  0.85628433  0.96910143  0.87585739     0.30900
C637        C  0.55835899  0.81651804  0.73628304     0.03000
C638        C  0.51812913  0.80731553  0.76048111    -0.13200
C639        C  0.47789704  0.79570064  0.73648786     0.00500
C640        C  0.48184141  0.78944788  0.68939480    -0.11700
C641        C  0.52032613  0.80124139  0.66619412     0.02900
C642        C  0.55513890  0.82071310  0.69025273    -0.11100
H643        H  0.51845773  0.80782356  0.79650084     0.08500
H644        H  0.45513231  0.77451276  0.67021360     0.06100
H645        H  0.58396334  0.83237029  0.67219322     0.05900
C646        C  0.31654218  0.52700504  0.75734939     0.03000
C647        C  0.36295901  0.52955302  0.75651975    -0.13200
C648        C  0.38362571  0.56785165  0.74192609     0.00500
C649        C  0.36057251  0.60760487  0.74258548    -0.11700
C650        C  0.31483686  0.60934701  0.75097601     0.02900
C651        C  0.29178052  0.56802687  0.75735001    -0.11100
H652        H  0.38248897  0.49917286  0.75656550     0.08500
H653        H  0.37777621  0.63696413  0.73207202     0.06100
H654        H  0.25584516  0.56768808  0.76041739     0.05900
C655        C  0.56411606  0.38485739  0.78620627     0.03000
C656        C  0.52322358  0.35813635  0.78917932    -0.13200
C657        C  0.48058114  0.37585181  0.77236478     0.00500
C658        C  0.48410988  0.41492901  0.74787912    -0.11700
C659        C  0.52380255  0.43836363  0.74673895     0.02900
C660        C  0.55806576  0.42871873  0.77566320    -0.11100
H661        H  0.52482565  0.32478951  0.80176239     0.08500
H662        H  0.45697455  0.42637822  0.72705611     0.06100
H663        H  0.58695323  0.45047735  0.77589831     0.05900
C664        C  0.75916067  0.55009423  0.74699807     0.03000
C665        C  0.76457435  0.55393089  0.70101515    -0.13200
C666        C  0.76575677  0.59501733  0.68106527     0.00500
C667        C  0.76504637  0.63359322  0.70621847    -0.11700
C668        C  0.75524550  0.63384749  0.75156725     0.02900
C669        C  0.75433486  0.59104201  0.77326875    -0.11100
H670        H  0.76496280  0.52453488  0.67967534     0.08500
H671        H  0.76731280  0.66445971  0.68833692     0.06100
H672        H  0.74850082  0.58949868  0.80870588     0.05900
C673        C  0.57044492  0.35297594  0.27780079     0.03000
C674        C  0.52723328  0.37313075  0.26518619    -0.13200
C675        C  0.48473312  0.34931019  0.27155563     0.00500
C676        C  0.48811384  0.30746739  0.29095788    -0.11700
C677        C  0.52838745  0.29122158  0.30852921     0.02900
C678        C  0.56847802  0.31013972  0.29436176    -0.11100
H679        H  0.52669590  0.40589843  0.25113376     0.08500
H680        H  0.45773171  0.28994651  0.29880935     0.06100
H681        H  0.59966300  0.29394466  0.30277787     0.05900
C682        C  0.76808701  0.54316580  0.30143968     0.03000
C683        C  0.78230928  0.58496158  0.32261587    -0.13200
C684        C  0.78113694  0.62642762  0.29792059     0.00500
C685        C  0.76783899  0.62355844  0.25312113    -0.11700
C686        C  0.74787476  0.58537607  0.23481665     0.02900
C687        C  0.75331213  0.54526371  0.25735198    -0.11100
H688        H  0.79432432  0.58510106  0.35664185     0.08500
H689        H  0.76579524  0.65366237  0.23402701     0.06100
H690        H  0.74192011  0.51484580  0.24153917     0.05900
C691        C  0.58039906  0.81433376  0.28683001     0.03000
C692        C  0.54014163  0.83887756  0.29984590    -0.13200
C693        C  0.49600443  0.82189140  0.28810421     0.00500
C694        C  0.49494721  0.78561907  0.25883639    -0.11700
C695        C  0.53054923  0.75605834  0.25536607     0.02900
C696        C  0.57344493  0.77122809  0.26790303    -0.11100
H697        H  0.54314002  0.86914857  0.31944061     0.08500
H698        H  0.46321065  0.77571363  0.24444012     0.06100
H699        H  0.60153898  0.74901408  0.26353980     0.05900
C700        C  0.27740052  0.53587252  0.31043990     0.03000
C701        C  0.29176031  0.53665224  0.35403091    -0.13200
C702        C  0.32702818  0.56425070  0.36284924     0.00500
C703        C  0.32754284  0.60649084  0.34447457    -0.11700
C704        C  0.29723948  0.61739990  0.31045080     0.02900
C705        C  0.27518976  0.57913527  0.28907812    -0.11100
H706        H  0.28929355  0.50662743  0.37334476     0.08500
H707        H  0.35125200  0.63046062  0.35713897     0.06100
H708        H  0.25895028  0.58253206  0.25706925     0.05900
C709        C  0.73465442  0.84700252  0.48253364     0.03000
C710        C  0.68868070  0.85367263  0.47810818    -0.13200
C711        C  0.66117809  0.83632178  0.51058498     0.00500
C712        C  0.67643097  0.83799377  0.55505133    -0.11700
C713        C  0.72210714  0.84407372  0.56530835     0.02900
C714        C  0.75234441  0.84587467  0.52765309    -0.11100
H715        H  0.67488152  0.85607180  0.44470340     0.08500
H716        H  0.65372383  0.82842651  0.58110533     0.06100
H717        H  0.78798845  0.84413622  0.53317720     0.05900
C718        C  0.79600490  0.36869436  0.48988912     0.03000
C719        C  0.83371871  0.39554520  0.49325222    -0.13200
C720        C  0.84396111  0.41934308  0.53219908     0.00500
C721        C  0.82796186  0.40274877  0.57244121    -0.11700
C722        C  0.79129252  0.37386453  0.57413407     0.02900
C723        C  0.77390494  0.35711921  0.53143393    -0.11100
H724        H  0.85024712  0.40442044  0.46278743     0.08500
H725        H  0.83993104  0.41805756  0.60315663     0.06100
H726        H  0.74564144  0.33491457  0.53066553     0.05900
C727        C  0.28953445  0.78107981  0.47974777     0.03000
C728        C  0.29790242  0.73567593  0.47907066    -0.13200
C729        C  0.29163563  0.70930120  0.51602075     0.00500
C730        C  0.27741018  0.72825006  0.55581097    -0.11700
C731        C  0.27272994  0.77409990  0.56090822     0.02900
C732        C  0.27694121  0.80127180  0.52190034    -0.11100
H733        H  0.31158230  0.72044557  0.44929419     0.08500
H734        H  0.27486113  0.70719643  0.58466061     0.06100
H735        H  0.27237262  0.83680205  0.52461748     0.05900
C736        C  0.29464258  0.34032951  0.47330102     0.03000
C737        C  0.26854255  0.34533648  0.51431306    -0.13200
C738        C  0.28932142  0.33910458  0.55803113     0.00500
C739        C  0.33334898  0.32361671  0.55819168    -0.11700
C740        C  0.36032932  0.32439324  0.52081863     0.02900
C741        C  0.34087499  0.33159912  0.47896708    -0.11100
H742        H  0.23395156  0.35541014  0.51228917     0.08500
H743        H  0.34944369  0.31602715  0.58963893     0.06100
H744        H  0.36273081  0.33224548  0.45058802     0.05900
O745        O  0.95459820  0.96757390  0.88122687    -0.86700
O746        O  0.14123712  0.94138282  0.02665432    -0.86800
O747        O  0.09139133  0.97035734  0.85234074    -0.88500
O748        O  0.04495044  0.88517102  0.96814353    -0.87300
O749        O  0.04848135  0.91408768  0.03677905    -0.86800
O750        O  0.11653473  0.04196797  0.84799739    -0.88200
O751        O  0.13360886  0.91941971  0.95586208    -0.86700
O752        O  0.01327570  0.92217347  0.87770854    -0.86300
Zr753      Zr  0.06710337  0.95359581  0.92965632     2.84300
O754        O  0.05704089  0.00911220  0.98596079    -1.08300
O755        O  0.03847376  0.01745565  0.89993055    -1.09000
C756        C  0.97163804  0.92855754  0.88446689     1.06400
C757        C  0.13956519  0.91048349  0.99654847     1.06400
C758        C  0.10674084  0.00414359  0.83070858     1.09400
C759        C  0.03926646  0.88213403  0.01032308     1.07100
H760        H  0.14969778  0.00026511  0.92944861     0.32700
O761        O  0.12159169  0.00827977  0.94295540    -1.29200
H762        H  0.98185390  0.94012854  0.97045169     0.32400
O763        O  0.99988710  0.96429682  0.96982287    -1.30900
O764        O  0.13909079  0.08831751  0.06786091    -0.86700
O765        O  0.91910108  0.08830507  0.94598832    -0.88200
O766        O  0.17245170  0.08501974  0.92939506    -0.86700
O767        O  0.05363750  0.96461957  0.10997358    -0.86800
O768        O  0.93193754  0.99000904  0.04371148    -0.86500
O769        O  0.04097407  0.09333205  0.85125328    -0.86300
O770        O  0.04342406  0.17128067  0.98839594    -0.86700
O771        O  0.98353865  0.09923235  0.08622638    -0.86100
O772        O  0.08226010  0.15687706  0.92406330    -0.87200
O773        O  0.99453873  0.02934293  0.11131612    -0.86400
O774        O  0.19319911  0.04517677  0.99056978    -0.86800
O775        O  0.97146210  0.06408524  0.86478662    -0.86500
O776        O  0.90152727  0.01764072  0.98065475    -0.86100
O777        O  0.11605664  0.96314349  0.07226275    -0.86500
O778        O  0.07371210  0.12524468  0.08062729    -0.86800
O779        O  0.95346821  0.12601445  0.00292138    -0.88200
Zr780      Zr  0.12512080  0.02188060  0.02042399     2.83100
Zr781      Zr  0.96924837  0.02772053  0.93527221     2.83500
Zr782      Zr  0.09020932  0.07559807  0.91514990     2.84100
Zr783      Zr  0.01172443  0.98472137  0.04431095     2.83400
Zr784      Zr  0.02779893  0.10119016  0.02063874     2.84200
O785        O  0.97825971  0.04390302  0.01143715    -1.08700
O786        O  0.09931259  0.08874038  0.99129823    -1.08200
C787        C  0.11609973  0.12240057  0.08184874     1.06400
C788        C  0.92025350  0.11845166  0.97648164     1.09000
C789        C  0.20189198  0.06928275  0.95730834     1.06600
C790        C  0.09591315  0.96862941  0.10879703     1.07000
C791        C  0.89901978  0.00583054  0.02174829     1.06500
C792        C  0.99997759  0.08402109  0.84043575     1.06100
C793        C  0.06211310  0.18307207  0.95222230     1.06500
C794        C  0.98576869  0.07087287  0.11726536     1.06000
H795        H  0.00582463  0.11337161  0.93156323     0.32700
O796        O  0.01897395  0.08764260  0.94510185    -1.29800
H797        H  0.06757881  0.04720887  0.08913488     0.32700
O798        O  0.06125962  0.04176262  0.05803524    -1.31200
O799        O  0.53866062  0.67405373  0.48659307    -0.86700
O800        O  0.62732977  0.45634900  0.56315446    -0.86800
O801        O  0.53280041  0.56359052  0.59069416    -0.88500
O802        O  0.66084848  0.58382545  0.50175986    -0.87300
O803        O  0.71985740  0.59739156  0.46726669    -0.86800
O804        O  0.47688237  0.52552097  0.55575687    -0.88200
O805        O  0.62957044  0.52669207  0.59081881    -0.86700
O806        O  0.57357587  0.64712907  0.54891778    -0.86300
Zr807      Zr  0.59097255  0.56946448  0.53718419     2.84300
O808        O  0.64479149  0.53038447  0.49570494    -1.08300
O809        O  0.52352547  0.57848840  0.49964181    -1.09000
C810        C  0.55474918  0.67840037  0.52664500     1.06400
C811        C  0.62316289  0.48511457  0.59517871     1.06400
C812        C  0.49385936  0.54611591  0.58940638     1.09400
C813        C  0.70025054  0.59832234  0.50454150     1.07100
H814        H  0.55176879  0.48367868  0.55105048     0.32700
O815        O  0.56067804  0.49864549  0.52447766    -1.29200
H816        H  0.61236578  0.63364453  0.47949049     0.32400
O817        O  0.60386378  0.60403536  0.47043883    -1.30900
O818        O  0.59690610  0.39474237  0.44297868    -0.86700
O819        O  0.51790493  0.61707891  0.35463406    -0.88200
O820        O  0.49347599  0.43494128  0.50469490    -0.86700
O821        O  0.72108508  0.51770900  0.43624353    -0.86800
O822        O  0.65574349  0.64498358  0.41618222    -0.86500
O823        O  0.43588598  0.55916165  0.48100795    -0.86300
O824        O  0.50202334  0.44750799  0.36490837    -0.86700
O825        O  0.61151676  0.51166888  0.31229875    -0.86100
O826        O  0.48605684  0.44434112  0.43519616    -0.87200
O827        O  0.66041655  0.56116414  0.34357197    -0.86400
O828        O  0.56247602  0.40327735  0.50687720    -0.86800
O829        O  0.46044984  0.62492333  0.45361079    -0.86500
O830        O  0.58499431  0.66784261  0.40170048    -0.86100
O831        O  0.69723213  0.46525348  0.48499250    -0.86500
O832        O  0.56081698  0.41855826  0.38085747    -0.86800
O833        O  0.53214082  0.55221391  0.31633598    -0.88200
Zr834      Zr  0.61542398  0.46143184  0.48265100     2.83100
Zr835      Zr  0.53728989  0.61197615  0.43173361     2.83500
Zr836      Zr  0.49852421  0.50913066  0.48074645     2.84100
Zr837      Zr  0.65683076  0.56452433  0.42468293     2.83400
Zr838      Zr  0.56176886  0.50070461  0.37328413     2.84200
O839        O  0.58886386  0.57232467  0.38666203    -1.08700
O840        O  0.56914403  0.51503634  0.44996790    -1.08200
C841        C  0.57317514  0.38804535  0.40822587     1.06400
C842        C  0.51968823  0.59345940  0.31866397     1.09000
C843        C  0.51984184  0.40285352  0.51320364     1.06600
C844        C  0.72775382  0.48962538  0.46727739     1.07000
C845        C  0.62515578  0.67516085  0.41456796     1.06500
C846        C  0.43146550  0.60046177  0.47288241     1.06100
C847        C  0.47316841  0.44974368  0.39571599     1.06500
C848        C  0.64044069  0.54271698  0.30987220     1.06000
H849        H  0.47824897  0.54733640  0.39520276     0.32700
O850        O  0.50555844  0.54234045  0.41134283    -1.29800
H851        H  0.65223392  0.47651322  0.39190195     0.32700
O852        O  0.63052073  0.49083781  0.41049858    -1.31200
C853        C  0.42092761  0.36450462  0.55969223    -0.12400
C854        C  0.40908455  0.33135257  0.52877511     0.04600
C855        C  0.44405114  0.30746183  0.50767472    -0.07700
C856        C  0.48697087  0.32724985  0.50649139    -0.08500
C857        C  0.49628707  0.36512079  0.53274520    -0.08200
C858        C  0.46503138  0.37699752  0.56549543     0.03800
N859        N  0.47713736  0.40337905  0.60350044     0.66300
H860        H  0.39567840  0.38159698  0.57881582     0.15200
H861        H  0.51279114  0.31354324  0.48538491     0.14900
N862        N  0.43802653  0.26219091  0.49313381     0.74000
O863        O  0.47521928  0.38638016  0.64146246    -0.39400
O864        O  0.49177859  0.44222133  0.59960698    -0.39400
O865        O  0.46966437  0.24172111  0.47427887    -0.40100
O866        O  0.40669230  0.23972652  0.50919245    -0.40200
C867        C  0.35062904  0.66303697  0.54521210    -0.12400
C868        C  0.31427486  0.66627045  0.51598791     0.04600
C869        C  0.31317713  0.63926098  0.47744591    -0.07700
C870        C  0.35246772  0.61923502  0.46329391    -0.08500
C871        C  0.39090270  0.62133634  0.48922421    -0.03000
C872        C  0.38900481  0.64061742  0.53211066     0.03800
N873        N  0.42642154  0.64087051  0.56158573     0.66300
H874        H  0.35193562  0.68294432  0.57554751     0.15200
H875        H  0.35368285  0.60382213  0.43137198     0.14900
N876        N  0.27374696  0.63538418  0.45063695     0.74000
O877        O  0.42080088  0.62871736  0.60106249    -0.39400
O878        O  0.45874419  0.66585469  0.55334114    -0.39400
O879        O  0.27018567  0.65721413  0.41533939    -0.40100
O880        O  0.24840382  0.60265640  0.45619354    -0.40200
C881        C  0.81945456  0.49117590  0.55417192    -0.12400
C882        C  0.85156264  0.46874587  0.52870267     0.04600
C883        C  0.85316155  0.48551370  0.48503877    -0.07700
C884        C  0.81200954  0.49249125  0.46285980    -0.08500
C885        C  0.77244233  0.48956065  0.48803050    -0.03000
C886        C  0.77674050  0.49168272  0.53513780     0.03800
N887        N  0.73925747  0.48757989  0.56353499     0.66300
H888        H  0.82214611  0.49146885  0.59015943     0.15200
H889        H  0.81095465  0.49803688  0.42734533     0.14900
N890        N  0.89464395  0.48945184  0.46239147     0.74000
O891        O  0.72890531  0.45024427  0.57849781    -0.39400
O892        O  0.71266728  0.51938722  0.56795733    -0.39400
O893        O  0.91553231  0.45512736  0.44989592    -0.40100
O894        O  0.91476675  0.52611525  0.46395089    -0.40200
C895        C  0.67588143  0.75975641  0.49329913    -0.12400
C896        C  0.64373022  0.79334563  0.49433177     0.04600
C897        C  0.60554565  0.78882525  0.46726581    -0.07700
C898        C  0.59997632  0.75018909  0.44114647    -0.08500
C899        C  0.63369090  0.71733509  0.43897199    -0.03000
C900        C  0.67293501  0.72354948  0.46477256     0.03800
N901        N  0.71176135  0.69578777  0.46124123     0.66300
H902        H  0.70671993  0.76429735  0.51178868     0.15200
H903        H  0.56976475  0.74663479  0.42146505     0.14900
N904        N  0.57341581  0.82367415  0.46428113     0.74000
O905        O  0.72973360  0.68921149  0.42383538    -0.39400
O906        O  0.73508249  0.68978915  0.49565265    -0.39400
O907        O  0.57510263  0.84975830  0.43194804    -0.40100
O908        O  0.53784204  0.82115790  0.48627260    -0.40200
C909        C  0.42830924  0.49431730  0.34577637    -0.12400
C910        C  0.43357636  0.47638128  0.38804381     0.04600
C911        C  0.40290626  0.48706728  0.42215660    -0.07700
C912        C  0.37073971  0.51929068  0.41418332    -0.08500
C913        C  0.36797083  0.54014099  0.37280403    -0.03000
C914        C  0.39568270  0.52534971  0.33744629     0.03800
N915        N  0.38834899  0.53665938  0.29180314     0.66300
H916        H  0.44952569  0.48396528  0.31839085     0.15200
H917        H  0.34577396  0.52590605  0.43940697     0.14900
N918        N  0.39974827  0.46146186  0.46192275     0.74000
O919        O  0.41905815  0.55661186  0.27199231    -0.39400
O920        O  0.36384159  0.51148951  0.26844450    -0.39400
O921        O  0.41345997  0.47765446  0.49834475    -0.40100
O922        O  0.37259207  0.42965986  0.46306996    -0.40200
C923        C  0.47971707  0.69359003  0.27203727    -0.12400
C924        C  0.51886835  0.70753553  0.25110732     0.04600
C925        C  0.54649828  0.67405246  0.23236908    -0.07700
C926        C  0.54233029  0.62998149  0.24829456    -0.08500
C927        C  0.50835745  0.61929944  0.27858009    -0.03000
C928        C  0.47319493  0.64987359  0.28332377     0.03800
N929        N  0.43313826  0.63931464  0.30606592     0.66300
H930        H  0.45505032  0.71692939  0.28394203     0.15200
H931        H  0.56710790  0.60521369  0.23982478     0.14900
N932        N  0.57607506  0.68381522  0.19627186     0.74000
O933        O  0.43282417  0.63891048  0.34804517    -0.39400
O934        O  0.39678705  0.64372295  0.28526283    -0.39400
O935        O  0.60119510  0.65396405  0.18044561    -0.40100
O936        O  0.56973433  0.71824735  0.17372886    -0.40200
C937        C  0.67955400  0.62290109  0.22479235    -0.12400
C938        C  0.70758574  0.59123688  0.20481851     0.04600
C939        C  0.68350457  0.55237516  0.19399625    -0.07700
C940        C  0.65655447  0.53469587  0.22781525    -0.08500
C941        C  0.64963991  0.56162035  0.26614702    -0.03000
C942        C  0.65655625  0.60811311  0.26217796     0.03800
N943        N  0.64988972  0.63844881  0.29858596     0.66300
H944        H  0.68828884  0.65763588  0.22359744     0.15200
H945        H  0.64568146  0.50050879  0.22612581     0.14900
N946        N  0.69125334  0.52911668  0.15307970     0.74000
O947        O  0.68102612  0.64357415  0.32657056    -0.39400
O948        O  0.62088751  0.66850378  0.29527898    -0.39400
O949        O  0.67017739  0.54103016  0.11881259    -0.40100
O950        O  0.72635026  0.50644467  0.14848470    -0.40200
C951        C  0.56929939  0.26633550  0.37488080    -0.12400
C952        C  0.52752648  0.27004305  0.35378848     0.04600
C953        C  0.49715554  0.29248775  0.38156797    -0.07700
C954        C  0.51115645  0.33407968  0.39817722    -0.08500
C955        C  0.55737949  0.34237803  0.40032416    -0.03000
C956        C  0.58631131  0.30516002  0.39561515     0.03800
N957        N  0.63225256  0.30705188  0.40768344     0.66300
H958        H  0.59183416  0.23987490  0.36520762     0.15200
H959        H  0.48726775  0.35835668  0.41007220     0.14900
N960        N  0.45242107  0.27701228  0.38562755     0.74000
O961        O  0.64431187  0.29147706  0.44457092    -0.39400
O962        O  0.66081254  0.31125688  0.37746648    -0.39400
O963        O  0.44433119  0.23630180  0.37959034    -0.40100
O964        O  0.42227190  0.30227355  0.40055412    -0.40200
C965        C  0.78103177  0.60757594  0.60128911    -0.12400
C966        C  0.75077669  0.59905428  0.63527437     0.04600
C967        C  0.70465930  0.60127441  0.62720355    -0.07700
C968        C  0.68967039  0.60876883  0.58426229    -0.08500
C969        C  0.71951172  0.61037813  0.54843766    -0.03000
C970        C  0.76581055  0.61291024  0.55752424     0.03800
N971        N  0.79770471  0.62124789  0.52359537     0.66300
H972        H  0.81643094  0.60912806  0.60861048     0.15200
H973        H  0.65414707  0.60743930  0.57825287     0.14900
N974        N  0.67294729  0.59224956  0.66164883     0.74000
O975        O  0.81776832  0.58888485  0.50566573    -0.39400
O976        O  0.81567158  0.65901603  0.52265059    -0.39400
O977        O  0.64152481  0.61894981  0.66988054    -0.40100
O978        O  0.67315830  0.55507409  0.68023768    -0.40200
C979        C  0.55758222  0.41852720  0.67664512    -0.12400
C980        C  0.54051003  0.45248511  0.70418302     0.04600
C981        C  0.55541110  0.49590522  0.69966742    -0.07700
C982        C  0.58357836  0.50558129  0.66455868    -0.08500
C983        C  0.60002411  0.47180847  0.63578072    -0.03000
C984        C  0.58756729  0.42740657  0.64307718     0.03800
N985        N  0.60693153  0.39064040  0.61924040     0.66300
H986        H  0.55032609  0.38415882  0.68377613     0.15200
H987        H  0.59224427  0.53994477  0.65997362     0.14900
N988        N  0.54692972  0.52855842  0.73388965     0.74000
O989        O  0.63876164  0.36974735  0.63692166    -0.39400
O990        O  0.58389524  0.37092081  0.58986835    -0.39400
O991        O  0.57922778  0.54996321  0.75057898    -0.40100
O992        O  0.51023672  0.52851113  0.75427434    -0.40200
C993        C  0.40100330  0.53382529  0.67097085    -0.12400
C994        C  0.41557302  0.56158118  0.70599116     0.04600
C995        C  0.45458199  0.58682644  0.70116501    -0.07700
C996        C  0.48115834  0.57892811  0.66403963    -0.08500
C997        C  0.46663822  0.55040939  0.62930354    -0.03000
C998        C  0.42464923  0.52968092  0.63216956     0.03800
N999        N  0.40232556  0.50972170  0.59468810     0.66300
H1000       H  0.36856250  0.51803677  0.67200689     0.15200
H1001       H  0.51186574  0.59749968  0.66124647     0.14900
N1002       N  0.46611361  0.62236069  0.73127767     0.74000
O1003       O  0.39281867  0.46904598  0.59548787    -0.39400
O1004       O  0.38070040  0.53446217  0.56877989    -0.39400
O1005       O  0.49747618  0.61702218  0.75883146    -0.40100
O1006       O  0.45555587  0.66139823  0.72092507    -0.40200
C1007       C  0.57351995  0.76234922  0.61698169    -0.12400
C1008       C  0.53111921  0.78164289  0.62126971     0.04600
C1009       C  0.50061345  0.77585313  0.58539071    -0.07700
C1010       C  0.51105152  0.74603166  0.55017841    -0.08500
C1011       C  0.55096044  0.72145762  0.55088820    -0.03000
C1012       C  0.58388071  0.73352828  0.58237111     0.03800
N1013       N  0.62605574  0.71180900  0.58444206     0.66300
H1014       H  0.59829167  0.76555081  0.64317537     0.15200
H1015       H  0.48658641  0.73985445  0.52414654     0.14900
N1016       N  0.45966557  0.80005013  0.58355751     0.74000
O1017       O  0.66065134  0.73448389  0.57865474    -0.39400
O1018       O  0.62904763  0.67880924  0.60922536    -0.39400
O1019       O  0.45999900  0.83847062  0.56761595    -0.40100
O1020       O  0.42335836  0.77908149  0.58408240    -0.40200
C1021       C  0.13563898  0.23689244  0.05458210    -0.12400
C1022       C  0.17989622  0.23204820  0.04159851     0.04600
C1023       C  0.20590367  0.19700423  0.05899807    -0.07700
C1024       C  0.18541347  0.16366101  0.08256831    -0.08500
C1025       C  0.13938121  0.16457807  0.08883634    -0.03000
C1026       C  0.11571421  0.20443797  0.08006275     0.03800
N1027       N  0.07186641  0.21254510  0.09701064     0.66300
H1028       H  0.11714819  0.26660888  0.04631248     0.15200
H1029       H  0.20477392  0.13469572  0.09152981     0.14900
N1030       N  0.25313690  0.19469400  0.05327854     0.74000
O1031       O  0.06795138  0.22885471  0.13572936    -0.39400
O1032       O  0.03944217  0.21559058  0.07027426    -0.39400
O1033       O  0.27810622  0.20221901  0.08646696    -0.40100
O1034       O  0.26828198  0.17157156  0.02155583    -0.40200
C1035       C  0.17723177  0.04032386  0.17068548    -0.12400
C1036       C  0.15818030  0.04312252  0.21315484     0.04600
C1037       C  0.11927447  0.01866932  0.22203638    -0.07700
C1038       C  0.09896518  0.99421307  0.18756116    -0.08500
C1039       C  0.11975068  0.98972775  0.14601817    -0.03000
C1040       C  0.16101795  0.01092344  0.13879853     0.03800
N1041       N  0.19047001  0.99776669  0.10345583     0.66300
H1042       H  0.20918162  0.05582669  0.16460174     0.15200
H1043       H  0.06790194  0.97720636  0.19385321     0.14900
N1044       N  0.10146180  0.01607989  0.26587938     0.74000
O1045       O  0.20644100  0.02691927  0.07864216    -0.39400
O1046       O  0.21078644  0.96121646  0.10621450    -0.39400
O1047       O  0.06379634  0.03317160  0.27364117    -0.40100
O1048       O  0.11568055  0.98610252  0.29112984    -0.40200
C1049       C  0.96726301  0.15814795  0.20075854    -0.12400
C1050       C  0.01052199  0.16285891  0.21877174     0.04600
C1051       C  0.04194084  0.12907928  0.20921463    -0.07700
C1052       C  0.03009719  0.09341178  0.18114177    -0.08500
C1053       C  0.98756899  0.09060693  0.16185881    -0.03000
C1054       C  0.95558850  0.12223488  0.17386274     0.03800
N1055       N  0.91063967  0.11833092  0.15914280     0.66300
H1056       H  0.94203680  0.18333892  0.20577857     0.15200
H1057       H  0.05596664  0.07083896  0.17006995     0.14900
N1058       N  0.08720618  0.13258544  0.22307528     0.74000
O1059       O  0.88269491  0.10481857  0.18688940    -0.39400
O1060       O  0.89728571  0.14111384  0.12680825    -0.39400
O1061       O  0.09803934  0.12448438  0.26276002    -0.40100
O1062       O  0.11690945  0.13772875  0.19405568    -0.40200
C1063       C  0.84504639  0.03432901  0.12780315    -0.12400
C1064       C  0.81098296  0.06307582  0.11654022     0.04600
C1065       C  0.80083509  0.06984048  0.07161760    -0.07700
C1066       C  0.82702868  0.04839032  0.03837014    -0.08500
C1067       C  0.86022777  0.01733191  0.05059928    -0.03000
C1068       C  0.86459674  0.00782141  0.09643291     0.03800
N1069       N  0.88867747  0.97093025  0.11297810     0.66300
H1070       H  0.85250264  0.02771329  0.16247642     0.15200
H1071       H  0.82202253  0.05618063  0.00388659     0.14900
N1072       N  0.76423579  0.09785937  0.06041501     0.74000
O1073       O  0.92465951  0.97872398  0.13342277    -0.39400
O1074       O  0.86621688  0.93782486  0.12420534    -0.39400
O1075       O  0.72696312  0.08017630  0.05223374    -0.40100
O1076       O  0.76489345  0.13751523  0.07427136    -0.40200
C1077       C  0.98827892  0.82108942  0.10170432    -0.12400
C1078       C  0.01878439  0.78656019  0.10603274     0.04600
C1079       C  0.04254319  0.77256642  0.06774779    -0.07700
C1080       C  0.04334972  0.80088828  0.03037547    -0.08500
C1081       C  0.02184911  0.84234944  0.03254011    -0.03000
C1082       C  0.99162985  0.85028383  0.06749304     0.03800
N1083       N  0.97055928  0.89214791  0.07380058     0.66300
H1084       H  0.96696005  0.83118739  0.12904600     0.15200
H1085       H  0.06273281  0.79215990  0.00149140     0.14900
N1086       N  0.06297147  0.72943580  0.06586335     0.74000
O1087       O  0.97430752  0.91235969  0.11068328    -0.39400
O1088       O  0.95445171  0.91176537  0.04103557    -0.39400
O1089       O  0.08915034  0.71911352  0.03463544    -0.40100
O1090       O  0.04857241  0.69911176  0.09037180    -0.40200
C1091       C  0.26737983  0.11768577  0.94031299    -0.12400
C1092       C  0.24977579  0.07577273  0.94998856     0.04600
C1093       C  0.28035008  0.03946413  0.95290117    -0.07700
C1094       C  0.32237498  0.04361685  0.93305803    -0.08500
C1095       C  0.32799111  0.07993338  0.90538328    -0.03000
C1096       C  0.31190071  0.11927773  0.92582157     0.03800
N1097       N  0.33716156  0.15967586  0.92578448     0.66300
H1098       H  0.24755046  0.14754624  0.94402559     0.15200
H1099       H  0.34355342  0.01466181  0.92931046     0.14900
N1100       N  0.26837034  0.99796125  0.97160863     0.74000
O1101       O  0.32807269  0.19050612  0.95318538    -0.39400
O1102       O  0.37278469  0.16185616  0.90373787    -0.39400
O1103       O  0.25800185  0.96597856  0.94602752    -0.40100
O1104       O  0.27944881  0.99023169  0.01132328    -0.40200
C1105       C  0.04772817  0.00400926  0.72609879    -0.12400
C1106       C  0.06151127  0.96183234  0.71246917     0.04600
C1107       C  0.10844513  0.95673016  0.71623265    -0.07700
C1108       C  0.12751510  0.96852975  0.75753738    -0.08500
C1109       C  0.10611783  0.00214142  0.78171392    -0.03000
C1110       C  0.07368591  0.02718501  0.75838092     0.03800
N1111       N  0.07591741  0.07489949  0.75805446     0.66300
H1112       H  0.02158347  0.01991653  0.70749993     0.15200
H1113       H  0.15899989  0.95514941  0.76871933     0.14900
N1114       N  0.13515047  0.94972485  0.67738206     0.74000
O1115       O  0.10731805  0.09476852  0.77813946    -0.39400
O1116       O  0.05389121  0.09605248  0.72938822    -0.39400
O1117       O  0.17459908  0.96414573  0.67687580    -0.40100
O1118       O  0.11672565  0.93862696  0.64096602    -0.40200
C1119       C  0.09118061  0.25825877  0.93463799    -0.12400
C1120       C  0.05524350  0.22959184  0.94053019     0.04600
C1121       C  0.01157320  0.24689608  0.93749802    -0.07700
C1122       C  0.00464388  0.28887534  0.92042945    -0.08500
C1123       C  0.04029036  0.31214296  0.90224801    -0.03000
C1124       C  0.08331773  0.30129335  0.91888809     0.03800
N1125       N  0.11783321  0.33408973  0.92115964     0.66300
H1126       H  0.12454427  0.24764777  0.94346197     0.15200
H1127       H  0.97050008  0.29901615  0.91496480     0.14900
N1128       N  0.97329397  0.22164820  0.94873234     0.74000
O1129       O  0.10770522  0.37413276  0.92880073    -0.39400
O1130       O  0.15834665  0.32268661  0.92189785    -0.39400
O1131       O  0.94546358  0.23905192  0.97503411    -0.40100
O1132       O  0.96066885  0.19086331  0.92271871    -0.40200
C1133       C  0.96950217  0.05650043  0.76886072    -0.12400
C1134       C  0.98306279  0.09307631  0.79561093     0.04600
C1135       C  0.97167087  0.13602576  0.78166009    -0.07700
C1136       C  0.93951047  0.14037210  0.74797728    -0.08500
C1137       C  0.91703666  0.10213076  0.73222824    -0.03000
C1138       C  0.94275747  0.06367243  0.73114739     0.03800
N1139       N  0.93449097  0.03050547  0.69710320     0.66300
H1140       H  0.97921286  0.02333619  0.77782363     0.15200
H1141       H  0.92730074  0.17319578  0.74046672     0.14900
N1142       N  0.98833046  0.17483972  0.80376634     0.74000
O1143       O  0.93547859  0.98980133  0.70566167    -0.39400
O1144       O  0.92170017  0.04225135  0.65895781    -0.39400
O1145       O  0.02116691  0.19448631  0.78707563    -0.40100
O1146       O  0.96285548  0.19623915  0.82960948    -0.40200
C1147       C  0.15351770  0.80043728  0.05701830    -0.12400
C1148       C  0.17251419  0.77778858  0.02048096     0.04600
C1149       C  0.14835868  0.78577915  0.98132957    -0.07700
C1150       C  0.13806292  0.83037837  0.97274518    -0.08500
C1151       C  0.14226871  0.86252041  0.00765329    -0.03000
C1152       C  0.14381439  0.84566042  0.05157951     0.03800
N1153       N  0.13434852  0.87207939  0.09005005     0.66300
H1154       H  0.15777923  0.78777478  0.09025372     0.15200
H1155       H  0.12655425  0.83928340  0.93996555     0.14900
N1156       N  0.13917379  0.75085570  0.94966512     0.74000
O1157       O  0.09567808  0.87053687  0.10620256    -0.39400
O1158       O  0.16623257  0.88308922  0.11527910    -0.39400
O1159       O  0.15720778  0.71327967  0.95397941    -0.40100
O1160       O  0.10818068  0.75533808  0.92146070    -0.40200
C1161       C  0.88461937  0.17974011  0.01621928    -0.12400
C1162       C  0.88056877  0.14560138  0.98440347     0.04600
C1163       C  0.83856401  0.13711146  0.96434145    -0.07700
C1164       C  0.80113328  0.15939755  0.98078696    -0.08500
C1165       C  0.80622207  0.19426602  0.01188692    -0.03000
C1166       C  0.84929714  0.20714659  0.02561856     0.03800
N1167       N  0.85894362  0.25092664  0.04214102     0.66300
H1168       H  0.91643467  0.18804090  0.03138154     0.15200
H1169       H  0.76852582  0.15189244  0.96689479     0.14900
N1170       N  0.83368668  0.10899915  0.92574013     0.74000
O1171       O  0.88174287  0.25556087  0.07722543    -0.39400
O1172       O  0.85694206  0.28280898  0.01551425    -0.39400
O1173       O  0.80576085  0.07778018  0.92578852    -0.40100
O1174       O  0.84794695  0.12249436  0.88894059    -0.40200
C1175       C  0.91190089  0.91182141  0.93663923    -0.12400
C1176       C  0.94675983  0.89541304  0.91036708     0.04600
C1177       C  0.96345216  0.85260099  0.91912036    -0.07700
C1178       C  0.94833588  0.82957932  0.95599018    -0.08500
C1179       C  0.91508398  0.84724693  0.98358240    -0.03000
C1180       C  0.89575328  0.88887684  0.97260341     0.03800
N1181       N  0.85990810  0.90887745  0.99747156     0.66300
H1182       H  0.90067936  0.94551694  0.93318876     0.15200
H1183       H  0.96002815  0.79597247  0.96105600     0.14900
N1184       N  0.99149552  0.82952581  0.88850167     0.74000
O1185       O  0.86399134  0.91491533  0.03877790    -0.39400
O1186       O  0.82905405  0.92918180  0.97752191    -0.39400
O1187       O  0.03233912  0.82514983  0.89784717    -0.40100
O1188       O  0.97332129  0.80122565  0.86287826    -0.40200
loop_ 
_geom_bond_atom_site_label_1 
_geom_bond_atom_site_label_2 
_geom_bond_distance 
_geom_bond_site_symmetry_2 
_ccdc_geom_bond_type 
C1            C2   1.409       .  A
C1            C6   1.466       .  A
C1          C334   1.540       .  S
C2            C3   1.405       .  A
C2            H7   1.079       .  S
C3            C4   1.381   1_554  A
C3         C1179   1.471   1_554  S
C4            C5   1.382       .  A
C4            H8   1.088       .  S
C5            C6   1.458   1_556  A
C5          C595   1.530       .  S
C6            H9   1.082       .  S
C10          C11   1.461       .  A
C10          C15   1.399       .  A
C10         C255   1.534       .  S
C11          C12   1.460   1_554  A
C11          H16   1.082       .  S
C12          C13   1.382       .  A
C12         C529   1.518       .  S
C13          C14   1.373   1_556  A
C13          H17   1.087       .  S
C14          C15   1.395       .  A
C14        C1165   1.458       .  S
C15          H18   1.085       .  S
C19          C20   1.457       .  A
C19          C24   1.392       .  A
C19         C202   1.524       .  S
C20          C21   1.456   1_554  A
C20          H25   1.082       .  S
C21          C22   1.402       .  A
C21         C463   1.538       .  S
C22          C23   1.405   1_556  A
C22          H26   1.084       .  S
C23          C24   1.392       .  A
C23        C1148   1.506       .  S
C24          H27   1.085       .  S
C28          C29   1.391       .  A
C28          C33   1.449       .  A
C28         C527   1.511       .  S
C29          C30   1.388       .  A
C29          H34   1.081       .  S
C30          C31   1.415       .  A
C30        C1137   1.505       .  S
C31          C32   1.398       .  A
C31          H35   1.076       .  S
C32          C33   1.446       .  A
C32         C594   1.532   1_545  S
C33          H36   1.082       .  S
C37          C38   1.403       .  A
C37          C42   1.469   1_655  A
C37         C528   1.558       .  S
C38          C39   1.403   1_655  A
C38          H43   1.081       .  S
C39          C40   1.393       .  A
C39        C1123   1.507       .  S
C40          C41   1.402       .  A
C40          H44   1.080       .  S
C41          C42   1.465       .  A
C41         C397   1.555       .  S
C42          H45   1.082       .  S
C46          C47   1.424       .  A
C46          C51   1.464   1_655  A
C46         C593   1.562       .  S
C47          C48   1.431   1_655  A
C47          H52   1.070       .  S
C48          C49   1.388       .  A
C48        C1106   1.512       .  S
C49          C50   1.384       .  A
C49          H53   1.083       .  S
C50          C51   1.442       .  A
C50         C462   1.538       .  S
C51          H54   1.070       .  S
C55          C56   1.389       .  A
C55          C60   1.436       .  A
C55         C395   1.504       .  S
C56          C57   1.396       .  A
C56          H61   1.083       .  S
C57          C58   1.414       .  A
C57        C1095   1.511       .  S
C58          C59   1.405       .  A
C58          H62   1.083       .  S
C59          C60   1.440       .  A
C59         C461   1.516   1_545  S
C60          H63   1.082       .  S
C64          C65   1.395       .  A
C64          C69   1.464   1_655  A
C64         C326   1.553       .  S
C65          C66   1.398   1_655  A
C65          H70   1.087       .  S
C66          C67   1.411       .  A
C66        C1078   1.492       .  S
C67          C68   1.414       .  A
C67          H71   1.081       .  S
C68          C69   1.468       .  A
C68         C209   1.560       .  S
C69          H72   1.082       .  S
C73          C74   1.468       .  A
C73          C78   1.405       .  A
C73         C254   1.545       .  S
C74          C75   1.462       .  A
C74          H79   1.082       .  S
C75          C76   1.388       .  A
C75         C341   1.548   1_545  S
C76          C77   1.396       .  A
C76          H80   1.087       .  S
C77          C78   1.397       .  A
C77        C1064   1.466       .  S
C78          H81   1.084       .  S
C82          C83   1.384       .  A
C82          C87   1.462   1_655  A
C82         C256   1.546       .  S
C83          C84   1.394   1_655  A
C83          H88   1.085       .  S
C84          C85   1.408       .  A
C84        C1050   1.497       .  S
C85          C86   1.412       .  A
C85          H89   1.077       .  S
C86          C87   1.466       .  A
C86         C134   1.560       .  S
C87          H90   1.082       .  S
Zr91         O92   2.376       .  S
Zr91         O93   2.560       .  S
Zr91         O94   2.587       .  S
Zr91         O97   2.533       .  S
Zr91         O99   2.375       .  S
Zr91        O100   2.398       .  S
Zr91        O101   2.418       .  S
Zr91        O102   2.414       .  S
O92         H148   0.990       .  S
O92         H156   0.985       .  S
O93         C113   1.319       .  A
O94         C115   1.316       .  A
O95        Zr105   2.537       .  S
O95         C114   1.301       .  A
O96        Zr104   2.526       .  S
O96         C115   1.301       .  A
O97         C114   1.306       .  A
O98        Zr106   2.421       .  S
O98         C113   1.272       .  A
O99        Zr104   2.418       .  S
O99        Zr106   2.414       .  S
O100       Zr105   2.417       .  S
O100       Zr106   2.390       .  S
O100        H135   0.966       .  S
O101       Zr104   2.405       .  S
O101       Zr121   2.403       .  S
O101        H138   0.961       .  S
O102       Zr105   2.404       .  S
O102       Zr121   2.397       .  S
Zr103       O128   2.422       .  S
Zr103       O122   2.554       .  S
Zr103       O130   2.544       .  S
Zr103       O118   2.534       .  S
Zr103       O109   2.424       .  S
Zr103       O110   2.433       .  S
Zr103       O111   2.385       .  S
Zr103       O112   2.383       .  S
Zr104       O123   2.436       .  S
Zr104       O116   2.436       .  S
Zr104       O117   2.495       .  S
Zr104       O110   2.426       .  S
Zr104       O111   2.441       .  S
Zr105       O107   2.435       .  S
Zr105       O129   2.438       .  S
Zr105       O131   2.515       .  S
Zr105       O109   2.413       .  S
Zr105       O112   2.427       .  S
Zr106       O132   2.436       .  S
Zr106       O133   2.438       .  S
Zr106       O108   2.439       .  S
Zr106       O109   2.402       .  S
Zr106       O110   2.382       .  S
O107        H144   0.990       .  S
O108        H139   0.990       .  S
O108        H153   0.990       .  S
O110        H136   0.962       .  S
O111       Zr121   2.396       .  S
O112       Zr121   2.376       .  S
O112        H137   0.966       .  S
C113        C700   1.536       .  S
C114        C736   1.566       .  S
C115        C675   1.572       .  S
O116        H152   0.990       .  S
O117        C119   1.290       .  A
O118        C119   1.314       .  A
C119        C364   1.548       .  S
O120       Zr121   2.444       .  S
O120        H149   0.990       .  S
Zr121       O124   2.435       .  S
Zr121       O125   2.427       .  S
Zr121       O126   2.431       .  S
O122        C127   1.311       .  A
O123        H140   0.990       .  S
O123        H155   0.990       .  S
O124        H141   0.989       .  S
O125        H145   0.990       .  S
O125        H154   0.990       .  S
O126        C127   1.277       .  A
C127        C157   1.534       .  S
O128        H147   0.990       .  S
O128        H151   0.990       .  S
O129        H143   0.990       .  S
O129        H150   0.990       .  S
O130        C134   1.310       .  A
O131        C134   1.298       .  A
O132        H142   0.990       .  S
O133        H146   0.990       .  S
C157        C158   1.401       .  A
C157        C162   1.460       .  A
C158        C159   1.398       .  A
C158        H163   1.076       .  S
C159        C160   1.387       .  A
C159       C1036   1.468       .  S
C160        C161   1.401       .  A
C160        H164   1.085   1_545  S
C161        C162   1.453       .  A
C161        C194   1.537   1_545  S
C162        H165   1.082       .  S
Zr166       O167   2.441       .  S
Zr166       O168   2.523       .  S
Zr166       O169   2.570       .  S
Zr166       O172   2.552       .  S
Zr166       O174   2.393       .  S
Zr166       O175   2.397       .  S
Zr166       O176   2.431       .  S
Zr166       O177   2.426       .  S
O167        H223   0.991       .  S
O167        H231   0.987       .  S
O168        C188   1.305       .  A
O169        C190   1.317       .  A
O170       Zr180   2.480       .  S
O170        C189   1.291       .  A
O171       Zr179   2.522       .  S
O171        C190   1.299       .  A
O172        C189   1.314       .  A
O173       Zr181   2.429       .  S
O173        C188   1.277       .  A
O174       Zr179   2.429       .  S
O174       Zr181   2.398       .  S
O175       Zr180   2.418       .  S
O175       Zr181   2.387       .  S
O175        H210   0.966       .  S
O176       Zr179   2.410       .  S
O176       Zr196   2.367       .  S
O176        H213   0.958       .  S
O177       Zr180   2.409       .  S
O177       Zr196   2.414       .  S
Zr178       O203   2.417       .  S
Zr178       O197   2.556       .  S
Zr178       O205   2.564       .  S
Zr178       O193   2.524       .  S
Zr178       O184   2.420       .  S
Zr178       O185   2.433       .  S
Zr178       O186   2.395       .  S
Zr178       O187   2.385       .  S
Zr179       O198   2.435       .  S
Zr179       O191   2.436       .  S
Zr179       O192   2.508       .  S
Zr179       O185   2.422       .  S
Zr179       O186   2.428       .  S
Zr180       O182   2.438       .  S
Zr180       O204   2.436       .  S
Zr180       O206   2.503       .  S
Zr180       O184   2.393       .  S
Zr180       O187   2.407       .  S
Zr181       O207   2.434       .  S
Zr181       O208   2.438       .  S
Zr181       O183   2.439       .  S
Zr181       O184   2.411       .  S
Zr181       O185   2.379       .  S
O182        H219   0.990       .  S
O183        H214   0.990       .  S
O183        H228   0.990       .  S
O185        H211   0.961       .  S
O186       Zr196   2.395       .  S
O187       Zr196   2.384       .  S
O187        H212   0.966       .  S
C188        C727   1.523       .  S
C189        C704   1.551       .  S
C190        C693   1.551       .  S
O191        H227   0.990       .  S
O192        C194   1.296       .  A
O193        C194   1.307       .  A
O195       Zr196   2.438       .  S
O195        H224   0.990       .  S
Zr196       O199   2.437       .  S
Zr196       O200   2.436       .  S
Zr196       O201   2.433       .  S
O197        C202   1.310       .  A
O198        H215   0.990       .  S
O198        H230   0.990       .  S
O199        H216   0.990       .  S
O200        H220   0.990       .  S
O200        H229   0.990       .  S
O201        C202   1.278       .  A
O203        H222   0.990       .  S
O203        H226   0.982       .  S
O204        H218   0.989       .  S
O204        H225   0.990       .  S
O205        C209   1.310       .  A
O206        C209   1.297       .  A
O207        H217   0.990       .  S
O208        H221   0.990       .  S
Zr232       O233   2.426       .  S
Zr232       O234   2.546       .  S
Zr232       O235   2.546       .  S
Zr232       O238   2.531       .  S
Zr232       O240   2.385       .  S
Zr232       O241   2.386       .  S
Zr232       O242   2.423       .  S
Zr232       O243   2.430       .  S
O233        H289   0.989       .  S
O233        H297   0.990       .  S
O234        C254   1.309       .  A
O235        C256   1.311       .  A
O236       Zr246   2.473       .  S
O236        C255   1.289       .  A
O237       Zr245   2.512       .  S
O237        C256   1.296       .  A
O238        C255   1.308       .  A
O239       Zr247   2.465       .  S
O239        C254   1.284       .  A
O240       Zr245   2.418       .  S
O240       Zr247   2.385       .  S
O241       Zr246   2.431       .  S
O241       Zr247   2.384       .  S
O241        H276   0.966       .  S
O242       Zr245   2.400       .  S
O242       Zr262   2.373       .  S
O242        H279   0.962       .  S
O243       Zr246   2.411       .  S
O243       Zr262   2.421       .  S
Zr244       O269   2.414       .  S
Zr244       O263   2.608       .  S
Zr244       O271   2.620       .  S
Zr244       O259   2.578       .  S
Zr244       O250   2.425       .  S
Zr244       O251   2.446       .  S
Zr244       O252   2.398       .  S
Zr244       O253   2.397       .  S
Zr245       O264   2.435       .  S
Zr245       O257   2.434       .  S
Zr245       O258   2.472       .  S
Zr245       O251   2.424       .  S
Zr245       O252   2.415       .  S
Zr246       O248   2.437       .  S
Zr246       O270   2.439       .  S
Zr246       O272   2.480       .  S
Zr246       O250   2.414       .  S
Zr246       O253   2.420       .  S
Zr247       O273   2.436       .  S
Zr247       O274   2.438       .  S
Zr247       O249   2.444       .  S
Zr247       O250   2.428       .  S
Zr247       O251   2.413       .  S
O248        H285   0.990       .  S
O249        H280   0.990       .  S
O249        H294   0.989       .  S
O251        H277   0.963       .  S
O252       Zr262   2.377       .  S
O253       Zr262   2.399       .  S
O253        H278   0.966       .  S
O257        H293   0.990       .  S
O258        C260   1.293       .  A
O259        C260   1.310       .  A
C260        C718   1.542       .  S
O261       Zr262   2.438       .  S
O261        H290   0.990       .  S
Zr262       O265   2.439       .  S
Zr262       O266   2.434       .  S
Zr262       O267   2.438       .  S
O263        C268   1.319       .  A
O264        H281   0.990       .  S
O264        H296   0.990       .  S
O265        H282   0.990       .  S
O266        H286   0.990       .  S
O266        H295   0.990       .  S
O267        C268   1.275       .  A
C268        C682   1.547       .  S
O269        H288   0.982       .  S
O269        H292   0.988       .  S
O270        H284   0.990       .  S
O270        H291   0.989       .  S
O271        C275   1.324       .  A
O272        C275   1.288       .  A
O273        H283   0.991       .  S
O274        H287   0.990       .  S
C275        C673   1.570       .  S
Zr298       O299   2.386       .  S
Zr298       O300   2.555       .  S
Zr298       O301   2.570       .  S
Zr298       O304   2.527       .  S
Zr298       O306   2.391       .  S
Zr298       O307   2.394       .  S
Zr298       O308   2.424       .  S
Zr298       O309   2.416       .  S
O299        H355   0.987       .  S
O299        H363   0.988       .  S
O300        C320   1.313       .  A
O301        C322   1.312       .  A
O302       Zr312   2.542       .  S
O302        C321   1.303       .  A
O303       Zr311   2.500       .  S
O303        C322   1.297       .  A
O304        C321   1.301       .  A
O305       Zr313   2.442       .  S
O305        C320   1.280       .  A
O306       Zr311   2.411       .  S
O306       Zr313   2.401       .  S
O307       Zr312   2.397       .  S
O307       Zr313   2.397       .  S
O307        H342   0.965       .  S
O308       Zr311   2.403       .  S
O308       Zr328   2.401       .  S
O308        H345   0.960       .  S
O309       Zr312   2.380       .  S
O309       Zr328   2.394       .  S
Zr310       O335   2.438       .  S
Zr310       O329   2.582       .  S
Zr310       O337   2.595       .  S
Zr310       O325   2.604       .  S
Zr310       O316   2.430       .  S
Zr310       O317   2.433       .  S
Zr310       O318   2.389       .  S
Zr310       O319   2.411       .  S
Zr311       O330   2.438       .  S
Zr311       O323   2.435       .  S
Zr311       O324   2.470       .  S
Zr311       O317   2.414       .  S
Zr311       O318   2.426       .  S
Zr312       O314   2.435       .  S
Zr312       O336   2.437       .  S
Zr312       O338   2.465       .  S
Zr312       O316   2.416       .  S
Zr312       O319   2.432       .  S
Zr313       O339   2.436       .  S
Zr313       O340   2.439       .  S
Zr313       O315   2.437       .  S
Zr313       O316   2.396       .  S
Zr313       O317   2.403       .  S
O314        H351   0.990       .  S
O315        H346   0.990       .  S
O315        H360   0.990       .  S
O317        H343   0.964       .  S
O318       Zr328   2.397       .  S
O319       Zr328   2.376       .  S
O319        H344   0.966       .  S
C320        C709   1.532       .  S
C321        C691   1.561       .  S
C322        C684   1.551       .  S
O323        H359   0.990       .  S
O324        C326   1.290       .  A
O325        C326   1.319       .  A
O327       Zr328   2.436       .  S
O327        H356   0.990       .  S
Zr328       O331   2.434       .  S
Zr328       O332   2.437       .  S
Zr328       O333   2.427       .  S
O329        C334   1.315       .  A
O330        H347   0.990       .  S
O330        H362   0.989       .  S
O331        H348   0.989       .  S
O332        H352   0.990       .  S
O332        H361   0.990       .  S
O333        C334   1.277       .  A
O335        H354   0.990       .  S
O335        H358   0.989       .  S
O336        H350   0.990       .  S
O336        H357   0.990       .  S
O337        C341   1.323       .  A
O338        C341   1.289       .  A
O339        H349   0.990       .  S
O340        H353   0.990       .  S
C364        C365   1.390       .  A
C364        C369   1.467       .  A
C365        C366   1.372       .  A
C365        H370   1.086       .  S
C366        C367   1.387   1_554  A
C366       C1022   1.454       .  S
C367        C368   1.408       .  A
C367        H371   1.082       .  S
C368        C369   1.471   1_556  A
C368        C396   1.549       .  S
C369        H372   1.081       .  S
Zr373       O374   2.440       .  S
Zr373       O375   2.523       .  S
Zr373       O376   2.533       .  S
Zr373       O379   2.514       .  S
Zr373       O381   2.384       .  S
Zr373       O382   2.396       .  S
Zr373       O383   2.430       .  S
Zr373       O384   2.427       .  S
O374        H430   0.990       .  S
O374        H438   0.990       .  S
O375        C395   1.302       .  A
O376        C397   1.309       .  A
O377       Zr387   2.505       .  S
O377        C396   1.293       .  A
O378       Zr386   2.536       .  S
O378        C397   1.302       .  A
O379        C396   1.306       .  A
O380       Zr388   2.420       .  S
O380        C395   1.276       .  A
O381       Zr386   2.425       .  S
O381       Zr388   2.394       .  S
O382       Zr387   2.427       .  S
O382       Zr388   2.383       .  S
O382        H417   0.966       .  S
O383       Zr386   2.420       .  S
O383       Zr403   2.378       .  S
O383        H420   0.960       .  S
O384       Zr387   2.414       .  S
O384       Zr403   2.410       .  S
Zr385       O410   2.416       .  S
Zr385       O404   2.513       .  S
Zr385       O412   2.528       .  S
Zr385       O400   2.537       .  S
Zr385       O391   2.420       .  S
Zr385       O392   2.417       .  S
Zr385       O393   2.387       .  S
Zr385       O394   2.382       .  S
Zr386       O405   2.434       .  S
Zr386       O398   2.436       .  S
Zr386       O399   2.532       .  S
Zr386       O392   2.419       .  S
Zr386       O393   2.435       .  S
Zr387       O389   2.437       .  S
Zr387       O411   2.436       .  S
Zr387       O413   2.509       .  S
Zr387       O391   2.419       .  S
Zr387       O394   2.416       .  S
Zr388       O414   2.438       .  S
Zr388       O415   2.437       .  S
Zr388       O390   2.441       .  S
Zr388       O391   2.414       .  S
Zr388       O392   2.373       .  S
O389        H426   0.990       .  S
O390        H421   0.990       .  S
O390        H435   0.990       .  S
O392        H418   0.960       .  S
O393       Zr403   2.400       .  S
O394       Zr403   2.380       .  S
O394        H419   0.966       .  S
O398        H434   0.990       .  S
O399        C401   1.300       .  A
O400        C401   1.312       .  A
C401        C738   1.555       .  S
O402       Zr403   2.438       .  S
O402        H431   0.990       .  S
Zr403       O406   2.437       .  S
Zr403       O407   2.440       .  S
Zr403       O408   2.429       .  S
O404        C409   1.304       .  A
O405        H422   0.990       .  S
O405        H437   0.990       .  S
O406        H423   0.990       .  S
O407        H427   0.990       .  S
O407        H436   0.989       .  S
O408        C409   1.277       .  A
C409        C646   1.513       .  S
O410        H429   0.989       .  S
O410        H433   0.990       .  S
O411        H425   0.990       .  S
O411        H432   0.990       .  S
O412        C416   1.307       .  A
O413        C416   1.295       .  A
O414        H424   0.990       .  S
O415        H428   0.990       .  S
C416        C657   1.557       .  S
Zr439       O440   2.416       .  S
Zr439       O441   2.533       .  S
Zr439       O442   2.542       .  S
Zr439       O445   2.574       .  S
Zr439       O447   2.398       .  S
Zr439       O448   2.404       .  S
Zr439       O449   2.445       .  S
Zr439       O450   2.418       .  S
O440        H496   0.990       .  S
O440        H504   0.987       .  S
O441        C461   1.303       .  A
O442        C463   1.310       .  A
O443       Zr453   2.438       .  S
O443        C462   1.288       .  A
O444       Zr452   2.517       .  S
O444        C463   1.299       .  A
O445        C462   1.312       .  A
O446       Zr454   2.426       .  S
O446        C461   1.276       .  A
O447       Zr452   2.431       .  S
O447       Zr454   2.389       .  S
O448       Zr453   2.417       .  S
O448       Zr454   2.379       .  S
O448        H483   0.964       .  S
O449       Zr452   2.434       .  S
O449       Zr469   2.391       .  S
O449        H486   0.961       .  S
O450       Zr453   2.399       .  S
O450       Zr469   2.391       .  S
Zr451       O476   2.436       .  S
Zr451       O470   2.493       .  S
Zr451       O478   2.477       .  S
Zr451       O466   2.449       .  S
Zr451       O457   2.406       .  S
Zr451       O458   2.426       .  S
Zr451       O459   2.377       .  S
Zr451       O460   2.369       .  S
Zr452       O471   2.443       .  S
Zr452       O464   2.434       .  S
Zr452       O465   2.560       .  S
Zr452       O458   2.408       .  S
Zr452       O459   2.418       .  S
Zr453       O455   2.438       .  S
Zr453       O477   2.424       .  S
Zr453       O479   2.484       .  S
Zr453       O457   2.375       .  S
Zr453       O460   2.393       .  S
Zr454       O480   2.432       .  S
Zr454       O481   2.441       .  S
Zr454       O456   2.444       .  S
Zr454       O457   2.403       .  S
Zr454       O458   2.379       .  S
O455        H492   0.990       .  S
O456        H487   0.990       .  S
O456        H501   0.990       .  S
O458        H484   0.960       .  S
O459       Zr469   2.402       .  S
O460       Zr469   2.379       .  S
O460        H485   0.966       .  S
O464        H500   0.991       .  S
O465        C467   1.307       .  A
O466        C467   1.290       .  A
C467        C639   1.539       .  S
O468       Zr469   2.427       .  S
O468        H497   0.990       .  S
Zr469       O472   2.435       .  S
Zr469       O473   2.437       .  S
Zr469       O474   2.418       .  S
O470        C475   1.298       .  A
O471        H488   0.990       .  S
O471        H503   0.990       .  S
O472        H489   0.990       .  S
O473        H493   0.990       .  S
O473        H502   0.990       .  S
O474        C475   1.274       .  A
C475        C650   1.509       .  S
O476        H495   0.986       .  S
O476        H499   0.990       .  S
O477        H491   0.990       .  S
O477        H498   0.990       .  S
O478        C482   1.295       .  A
O479        C482   1.290       .  A
O480        H490   0.988       .  S
O481        H494   0.990       .  S
C482        C731   1.509       .  S
Zr505       O506   2.439       .  S
Zr505       O507   2.541       .  S
Zr505       O508   2.554       .  S
Zr505       O511   2.563       .  S
Zr505       O513   2.391       .  S
Zr505       O514   2.392       .  S
Zr505       O515   2.430       .  S
Zr505       O516   2.415       .  S
O506        H562   0.990       .  S
O506        H570   0.990       .  S
O507        C527   1.309       .  A
O508        C529   1.314       .  A
O509       Zr519   2.488       .  S
O509        C528   1.291       .  A
O510       Zr518   2.453       .  S
O510        C529   1.284       .  A
O511        C528   1.317       .  A
O512       Zr520   2.421       .  S
O512        C527   1.276       .  A
O513       Zr518   2.411       .  S
O513       Zr520   2.389       .  S
O514       Zr519   2.396       .  S
O514       Zr520   2.391       .  S
O514        H549   0.965       .  S
O515       Zr518   2.415       .  S
O515       Zr535   2.393       .  S
O515        H552   0.963       .  S
O516       Zr519   2.402       .  S
O516       Zr535   2.413       .  S
Zr517       O542   2.417       .  S
Zr517       O536   2.542       .  S
Zr517       O544   2.601       .  S
Zr517       O532   2.604       .  S
Zr517       O523   2.428       .  S
Zr517       O524   2.428       .  S
Zr517       O525   2.387       .  S
Zr517       O526   2.399       .  S
Zr518       O537   2.436       .  S
Zr518       O530   2.436       .  S
Zr518       O531   2.461       .  S
Zr518       O524   2.415       .  S
Zr518       O525   2.413       .  S
Zr519       O521   2.438       .  S
Zr519       O543   2.439       .  S
Zr519       O545   2.439       .  S
Zr519       O523   2.410       .  S
Zr519       O526   2.426       .  S
Zr520       O546   2.436       .  S
Zr520       O547   2.441       .  S
Zr520       O522   2.443       .  S
Zr520       O523   2.412       .  S
Zr520       O524   2.376       .  S
O521        H558   0.989       .  S
O522        H553   0.990       .  S
O522        H567   0.989       .  S
O524        H550   0.960       .  S
O525       Zr535   2.388       .  S
O526       Zr535   2.386       .  S
O526        H551   0.966       .  S
O530        H566   0.990       .  S
O531        C533   1.286       .  A
O532        C533   1.328       .  A
C533        C655   1.543       .  S
O534       Zr535   2.440       .  S
O534        H563   0.990       .  S
Zr535       O538   2.436       .  S
Zr535       O539   2.439       .  S
Zr535       O540   2.441       .  S
O536        C541   1.306       .  A
O537        H554   0.990       .  S
O537        H569   0.990       .  S
O538        H555   0.990       .  S
O539        H559   0.990       .  S
O539        H568   0.990       .  S
O540        C541   1.278       .  A
C541        C664   1.529       .  S
O542        H561   0.990       .  S
O542        H565   0.990       .  S
O543        H557   0.990       .  S
O543        H564   0.990       .  S
O544        C548   1.319       .  A
O545        C548   1.286       .  A
O546        H556   0.991       .  S
O547        H560   0.990       .  S
C548        C722   1.548       .  S
Zr571       O572   2.430       .  S
Zr571       O573   2.618       .  S
Zr571       O574   2.602       .  S
Zr571       O577   2.540       .  S
Zr571       O579   2.392       .  S
Zr571       O580   2.403       .  S
Zr571       O581   2.437       .  S
Zr571       O582   2.434       .  S
O572        H628   0.990       .  S
O572        H636   0.991       .  S
O573        C593   1.322       .  A
O574        C595   1.324       .  A
O575       Zr585   2.476       .  S
O575        C594   1.292       .  A
O576       Zr584   2.440       .  S
O576        C595   1.284       .  A
O577        C594   1.303       .  A
O578       Zr586   2.438       .  S
O578        C593   1.281       .  A
O579       Zr584   2.432       .  S
O579       Zr586   2.390       .  S
O580       Zr585   2.420       .  S
O580       Zr586   2.377       .  S
O580        H615   0.966       .  S
O581       Zr584   2.422       .  S
O581       Zr601   2.387       .  S
O581        H618   0.962       .  S
O582       Zr585   2.403       .  S
O582       Zr601   2.407       .  S
Zr583       O608   2.429       .  S
Zr583       O602   2.509       .  S
Zr583       O610   2.523       .  S
Zr583       O598   2.528       .  S
Zr583       O589   2.425       .  S
Zr583       O590   2.419       .  S
Zr583       O591   2.379       .  S
Zr583       O592   2.389       .  S
Zr584       O603   2.436       .  S
Zr584       O596   2.435       .  S
Zr584       O597   2.486       .  S
Zr584       O590   2.408       .  S
Zr584       O591   2.409       .  S
Zr585       O587   2.438       .  S
Zr585       O609   2.437       .  S
Zr585       O611   2.503       .  S
Zr585       O589   2.397       .  S
Zr585       O592   2.404       .  S
Zr586       O612   2.435       .  S
Zr586       O613   2.438       .  S
Zr586       O588   2.439       .  S
Zr586       O589   2.414       .  S
Zr586       O590   2.385       .  S
O587        H624   0.990       .  S
O588        H619   0.990       .  S
O588        H633   0.990       .  S
O590        H616   0.962       .  S
O591       Zr601   2.395       .  S
O592       Zr601   2.384       .  S
O592        H617   0.966       .  S
O596        H632   0.990       .  S
O597        C599   1.290       .  A
O598        C599   1.308       .  A
C599        C668   1.536       .  S
O600       Zr601   2.436       .  S
O600        H629   0.990       .  S
Zr601       O604   2.437       .  S
Zr601       O605   2.438       .  S
Zr601       O606   2.441       .  S
O602        C607   1.302       .  A
O603        H620   0.990       .  S
O603        H635   0.990       .  S
O604        H621   0.990       .  S
O605        H625   0.990       .  S
O605        H634   0.990       .  S
O606        C607   1.279       .  A
C607        C637   1.515       .  S
O608        H627   0.990       .  S
O608        H631   0.990       .  S
O609        H623   0.989       .  S
O609        H630   0.990       .  S
O610        C614   1.304       .  A
O611        C614   1.296       .  A
O612        H622   0.990       .  S
O613        H626   0.990       .  S
C614        C713   1.540       .  S
C637        C638   1.442       .  A
C637        C642   1.394       .  A
C638        C639   1.442       .  A
C638        H643   1.082       .  S
C639        C640   1.430       .  A
C640        C641   1.402       .  A
C640        H644   1.079       .  S
C641        C642   1.392       .  A
C641       C1008   1.501       .  S
C642        H645   1.086       .  S
C646        C647   1.395       .  A
C646        C651   1.441       .  A
C647        C648   1.391       .  A
C647        H652   1.086       .  S
C648        C649   1.382       .  A
C648        C994   1.457       .  S
C649        C650   1.397       .  A
C649        H653   1.079       .  S
C650        C651   1.443       .  A
C651        H654   1.082       .  S
C655        C656   1.473       .  A
C655        C660   1.377       .  A
C656        C657   1.474       .  A
C656        H661   1.081       .  S
C657        C658   1.405       .  A
C658        C659   1.387       .  A
C658        H662   1.083       .  S
C659        C660   1.375       .  A
C659        C980   1.447       .  S
C660        H663   1.088       .  S
C664        C665   1.399       .  A
C664        C669   1.462       .  A
C665        C666   1.387       .  A
C665        H670   1.085       .  S
C666        C667   1.377       .  A
C666        C966   1.452       .  S
C667        C668   1.395       .  A
C667        H671   1.085       .  S
C668        C669   1.457       .  A
C669        H672   1.082       .  S
C673        C674   1.480       .  A
C673        C678   1.394       .  A
C674        C675   1.480       .  A
C674        H679   1.081       .  S
C675        C676   1.402       .  A
C676        C677   1.405       .  A
C676        H680   1.084       .  S
C677        C678   1.404       .  A
C677        C952   1.513       .  S
C678        H681   1.084       .  S
C682        C683   1.466       .  A
C682        C687   1.396       .  A
C683        C684   1.465       .  A
C683        H688   1.082       .  S
C684        C685   1.403       .  A
C685        C686   1.402       .  A
C685        H689   1.084       .  S
C686        C687   1.405       .  A
C686        C938   1.515       .  S
C687        H690   1.081       .  S
C691        C692   1.466       .  A
C691        C696   1.426       .  A
C692        C693   1.460       .  A
C692        H697   1.082       .  S
C693        C694   1.392       .  A
C694        C695   1.392       .  A
C694        H698   1.084       .  S
C695        C696   1.413       .  A
C695        C924   1.509       .  S
C696        H699   1.082       .  S
C700        C701   1.376       .  A
C700        C705   1.465       .  A
C701        C702   1.370       .  A
C701        H706   1.087       .  S
C702        C703   1.397       .  A
C702        C913   1.457       .  S
C703        C704   1.406       .  A
C703        H707   1.079       .  S
C704        C705   1.468       .  A
C705        H708   1.082       .  S
C709        C710   1.398       .  A
C709        C714   1.454       .  A
C710        C711   1.391       .  A
C710        H715   1.087       .  S
C711        C712   1.410       .  A
C711        C896   1.474       .  S
C712        C713   1.414       .  A
C712        H716   1.084       .  S
C713        C714   1.456       .  A
C714        H717   1.082       .  S
C718        C719   1.395       .  A
C718        C723   1.465       .  A
C719        C720   1.395       .  A
C719        H724   1.081       .  S
C720        C721   1.404       .  A
C720        C882   1.514       .  S
C721        C722   1.406       .  A
C721        H725   1.084       .  S
C722        C723   1.464       .  A
C723        H726   1.082       .  S
C727        C728   1.392       .  A
C727        C732   1.448       .  A
C728        C729   1.391       .  A
C728        H733   1.081       .  S
C729        C730   1.385       .  A
C729        C868   1.463       .  S
C730        C731   1.396       .  A
C730        H734   1.086       .  S
C731        C732   1.448       .  A
C732        H735   1.082       .  S
C736        C737   1.469       .  A
C736        C741   1.420       .  A
C737        C738   1.465       .  A
C737        H742   1.082       .  S
C738        C739   1.399       .  A
C739        C740   1.388       .  A
C739        H743   1.086       .  S
C740        C741   1.403       .  A
C740        C854   1.495       .  S
C741        H744   1.079       .  S
O745       Zr781   2.453   1_565  S
O745        C756   1.287       .  A
O746       Zr780   2.485   1_565  S
O746        C757   1.289   1_554  A
O747       Zr753   2.499       .  S
O747        C758   1.305   1_565  A
O748       Zr753   2.477       .  S
O748        C759   1.284   1_556  A
O749       Zr783   2.404       .  S
O749        C759   1.269       .  A
O750       Zr782   2.381       .  S
O750        C758   1.280       .  A
O751       Zr753   2.378       .  S
O751        C757   1.268       .  A
O752       Zr753   2.422       .  S
O752        C756   1.280   1_455  A
Zr753       O754   2.380   1_565  S
Zr753       O755   2.299   1_565  S
Zr753       O763   2.374   1_455  S
Zr753       O761   2.353   1_565  S
O754       Zr780   2.314   1_556  S
O754       Zr783   2.354   1_546  S
O755       Zr781   2.355   1_455  S
O755       Zr782   2.381       .  S
C756       C1176   1.483       .  S
C757       C1151   1.492   1_556  S
C758       C1109   1.472       .  S
C759       C1081   1.481       .  S
H760        O761   0.966       .  S
O761       Zr780   2.358   1_556  S
O761       Zr782   2.397       .  S
H762        O763   0.909       .  S
O763       Zr781   2.372   1_565  S
O763       Zr783   2.336   1_656  S
O764       Zr780   2.475       .  S
O764        C787   1.302       .  A
O765       Zr781   2.382       .  S
O765        C788   1.280       .  A
O766       Zr782   2.516       .  S
O766        C789   1.308       .  A
O767       Zr783   2.418       .  S
O767        C790   1.274       .  A
O768       Zr783   2.397   1_655  S
O768        C791   1.280   1_565  A
O769       Zr782   2.479       .  S
O769        C792   1.300   1_455  A
O770       Zr784   2.389   1_556  S
O770        C793   1.282       .  A
O771       Zr784   2.384   1_655  S
O771        C794   1.277       .  A
O772       Zr782   2.473       .  S
O772        C793   1.298       .  A
O773       Zr783   2.459   1_645  S
O773        C794   1.289       .  A
O774       Zr780   2.349   1_556  S
O774        C789   1.274       .  A
O775       Zr781   2.403       .  S
O775        C792   1.286       .  A
O776       Zr781   2.475       .  S
O776        C791   1.293   1_556  A
O777       Zr780   2.396   1_565  S
O777        C790   1.264       .  A
O778       Zr784   2.367       .  S
O778        C787   1.274       .  A
O779       Zr784   2.409   1_655  S
O779        C788   1.289   1_554  A
Zr780       O786   2.340   1_554  S
Zr780       O798   2.302       .  S
Zr781       O785   2.346   1_556  S
Zr781       O796   2.360   1_655  S
Zr782       O786   2.330       .  S
Zr782       O796   2.348       .  S
Zr783       O785   2.282   1_465  S
Zr783       O798   2.306   1_565  S
Zr784       O785   2.294   1_455  S
Zr784       O786   2.350   1_554  S
Zr784       O798   2.351       .  S
Zr784       O796   2.313   1_554  S
C787       C1025   1.464       .  S
C788       C1162   1.461       .  S
C789       C1092   1.468       .  S
C790       C1039   1.461       .  S
C791       C1067   1.491       .  S
C792       C1134   1.466       .  S
C793       C1120   1.466       .  S
C794       C1053   1.458       .  S
H795        O796   0.965       .  S
H797        O798   0.964       .  S
O799       Zr835   2.474       .  S
O799        C810   1.298       .  A
O800       Zr834   2.450       .  S
O800        C811   1.291       .  A
O801       Zr807   2.388       .  S
O801        C812   1.283       .  A
O802       Zr807   2.400       .  S
O802        C813   1.263       .  A
O803       Zr837   2.476       .  S
O803        C813   1.268       .  A
O804       Zr836   2.392       .  S
O804        C812   1.281       .  A
O805       Zr807   2.375       .  S
O805        C811   1.278       .  A
O806       Zr807   2.419       .  S
O806        C810   1.292       .  A
Zr807       O808   2.348       .  S
Zr807       O809   2.327       .  S
Zr807       O817   2.311       .  S
Zr807       O815   2.348       .  S
O808       Zr834   2.288       .  S
O808       Zr837   2.415       .  S
O809       Zr835   2.331       .  S
O809       Zr836   2.286       .  S
C810       C1011   1.483       .  S
C811        C983   1.469       .  S
C812        C997   1.458       .  S
C813        C969   1.477       .  S
H814        O815   0.963       .  S
O815       Zr834   2.345       .  S
O815       Zr836   2.298       .  S
H816        O817   0.964       .  S
O817       Zr835   2.318       .  S
O817       Zr837   2.407       .  S
O818       Zr834   2.386       .  S
O818        C841   1.274       .  A
O819       Zr835   2.392       .  S
O819        C842   1.286       .  A
O820       Zr836   2.368       .  S
O820        C843   1.276       .  A
O821       Zr837   2.413       .  S
O821        C844   1.285       .  A
O822       Zr837   2.445       .  S
O822        C845   1.292       .  A
O823       Zr836   2.406       .  S
O823        C846   1.280       .  A
O824       Zr838   2.418       .  S
O824        C847   1.272       .  A
O825       Zr838   2.398       .  S
O825        C848   1.282       .  A
O826       Zr836   2.396       .  S
O826        C847   1.258       .  A
O827       Zr837   2.440       .  S
O827        C848   1.292       .  A
O828       Zr834   2.490       .  S
O828        C843   1.294       .  A
O829       Zr835   2.429       .  S
O829        C846   1.288       .  A
O830       Zr835   2.404       .  S
O830        C845   1.281       .  A
O831       Zr834   2.457       .  S
O831        C844   1.298       .  A
O832       Zr838   2.493       .  S
O832        C841   1.296       .  A
O833       Zr838   2.489       .  S
O833        C842   1.299       .  A
Zr834       O840   2.352       .  S
Zr834       O852   2.402       .  S
Zr835       O839   2.370       .  S
Zr835       O850   2.378       .  S
Zr836       O840   2.324       .  S
Zr836       O850   2.340       .  S
Zr837       O839   2.343       .  S
Zr837       O852   2.391       .  S
Zr838       O839   2.338       .  S
Zr838       O840   2.346       .  S
Zr838       O852   2.360       .  S
Zr838       O850   2.385       .  S
C841        C955   1.473       .  S
C842        C927   1.483       .  S
C843        C857   1.474       .  S
C844        C885   1.474       .  S
C845        C899   1.480       .  S
C846        C871   1.452       .  S
C847        C910   1.451       .  S
C848        C941   1.469       .  S
H849        O850   0.962       .  S
H851        O852   0.958       .  S
C853        C854   1.398       .  A
C853        C858   1.385       .  A
C853        H860   1.078       .  S
C854        C855   1.417       .  A
C855        C856   1.421       .  A
C855        N862   1.438       .  S
C856        C857   1.405       .  A
C856        H861   1.081       .  S
C857        C858   1.404       .  A
C858        N859   1.426       .  S
N859        O863   1.260       .  A
N859        O864   1.260       .  A
N862        O866   1.263       .  A
N862        O865   1.262       .  A
C867        C868   1.400       .  A
C867        C872   1.389       .  A
C867        H874   1.083       .  S
C868        C869   1.405       .  A
C869        C870   1.388       .  A
C869        N876   1.430       .  S
C870        C871   1.388       .  A
C870        H875   1.059       .  S
C871        C872   1.406       .  A
C872        N873   1.425       .  S
N873        O877   1.260       .  A
N873        O878   1.258       .  A
N876        O880   1.261       .  A
N876        O879   1.262       .  A
C881        C882   1.399       .  A
C881        C886   1.400       .  A
C881        H888   1.084       .  S
C882        C883   1.415       .  A
C883        C884   1.416       .  A
C883        N890   1.428       .  S
C884        C885   1.415       .  A
C884        H889   1.083       .  S
C885        C886   1.421       .  A
C886        N887   1.422       .  S
N887        O891   1.260       .  A
N887        O892   1.252       .  A
N890        O894   1.261       .  A
N890        O893   1.262       .  A
C895        C896   1.397       .  A
C895        C900   1.380       .  A
C895        H902   1.084       .  S
C896        C897   1.406       .  A
C897        C898   1.404       .  A
C897        N904   1.428       .  S
C898        C899   1.415       .  A
C898        H903   1.083       .  S
C899        C900   1.416       .  A
C900        N901   1.436       .  S
N901        O905   1.262       .  A
N901        O906   1.260       .  A
N904        O908   1.261       .  A
N904        O907   1.262       .  A
C909        C910   1.397       .  A
C909        C914   1.377       .  A
C909        H916   1.084       .  S
C910        C911   1.414       .  A
C911        C912   1.390       .  A
C911        N918   1.437       .  S
C912        C913   1.405       .  A
C912        H917   1.084       .  S
C913        C914   1.418       .  A
C914        N915   1.434       .  S
N915        O919   1.259       .  A
N915        O920   1.260       .  A
N918        O922   1.261       .  A
N918        O921   1.258       .  A
C923        C924   1.404       .  A
C923        C928   1.382       .  A
C923        H930   1.078       .  S
C924        C925   1.416       .  A
C925        C926   1.427       .  A
C925        N932   1.440       .  S
C926        C927   1.412       .  A
C926        H931   1.081       .  S
C927        C928   1.405       .  A
C928        N929   1.425       .  S
N929        O933   1.262       .  A
N929        O934   1.261       .  A
N932        O936   1.263       .  A
N932        O935   1.261       .  A
C937        C938   1.400       .  A
C937        C942   1.402       .  A
C937        H944   1.082       .  S
C938        C939   1.411       .  A
C939        C940   1.414       .  A
C939        N946   1.425       .  S
C940        C941   1.414       .  A
C940        H945   1.083       .  S
C941        C942   1.425       .  A
C942        N943   1.429       .  S
N943        O947   1.261       .  A
N943        O948   1.259       .  A
N946        O950   1.261       .  A
N946        O949   1.262       .  A
C951        C952   1.405       .  A
C951        C956   1.412       .  A
C951        H958   1.082       .  S
C952        C953   1.404       .  A
C953        C954   1.407       .  A
C953        N960   1.428       .  S
C954        C955   1.410       .  A
C954        H959   1.081       .  S
C955        C956   1.423       .  A
C956        N957   1.423       .  S
N957        O961   1.262       .  A
N957        O962   1.260       .  A
N960        O964   1.260       .  A
N960        O963   1.262       .  A
C965        C966   1.398       .  A
C965        C970   1.401       .  A
C965        H972   1.084       .  S
C966        C967   1.404       .  A
C967        C968   1.386       .  A
C967        N974   1.440       .  S
C968        C969   1.405       .  A
C968        H973   1.080       .  S
C969        C970   1.415       .  A
C970        N971   1.428       .  S
N971        O975   1.260       .  A
N971        O976   1.262       .  A
N974        O978   1.261       .  A
N974        O977   1.261       .  A
C979        C980   1.403       .  A
C979        C984   1.385       .  A
C979        H986   1.085       .  S
C980        C981   1.394       .  A
C981        C982   1.391       .  A
C981        N988   1.435       .  S
C982        C983   1.415       .  A
C982        H987   1.081       .  S
C983        C984   1.413       .  A
C984        N985   1.433       .  S
N985        O989   1.262       .  A
N985        O990   1.260       .  A
N988        O992   1.262       .  A
N988        O991   1.262       .  A
C993        C994   1.402       .  A
C993        C998   1.372       .  A
C993       H1000   1.085       .  S
C994        C995   1.407       .  A
C995        C996   1.392       .  A
C995       N1002   1.433       .  S
C996        C997   1.409       .  A
C996       H1001   1.084       .  S
C997        C998   1.411       .  A
C998        N999   1.431       .  S
N999       O1003   1.261       .  A
N999       O1004   1.263       .  A
N1002      O1006   1.262       .  A
N1002      O1005   1.261       .  A
C1007      C1008   1.403       .  A
C1007      C1012   1.380       .  A
C1007      H1014   1.082       .  S
C1008      C1009   1.418       .  A
C1009      C1010   1.413       .  A
C1009      N1016   1.428       .  S
C1010      C1011   1.406       .  A
C1010      H1015   1.083       .  S
C1011      C1012   1.407       .  A
C1012      N1013   1.424       .  S
N1013      O1017   1.259       .  A
N1013      O1018   1.256       .  A
N1016      O1020   1.261       .  A
N1016      O1019   1.262       .  A
C1021      C1022   1.392       .  A
C1021      C1026   1.391       .  A
C1021      H1028   1.084       .  S
C1022      C1023   1.417       .  A
C1023      C1024   1.387       .  A
C1023      N1030   1.429       .  S
C1024      C1025   1.394       .  A
C1024      H1029   1.085       .  S
C1025      C1026   1.422       .  A
C1026      N1027   1.432       .  S
N1027      O1031   1.261       .  A
N1027      O1032   1.261       .  A
N1030      O1034   1.258       .  A
N1030      O1033   1.261       .  A
C1035      C1036   1.402       .  A
C1035      C1040   1.381       .  A
C1035      H1042   1.085       .  S
C1036      C1037   1.411       .  A
C1037      C1038   1.399   1_545  A
C1037      N1044   1.428       .  S
C1038      C1039   1.403       .  A
C1038      H1043   1.084       .  S
C1039      C1040   1.414   1_565  A
C1040      N1041   1.435   1_545  S
N1041      O1045   1.260   1_565  A
N1041      O1046   1.262       .  A
N1044      O1048   1.262   1_545  A
N1044      O1047   1.262       .  A
C1049      C1050   1.409   1_655  A
C1049      C1054   1.385       .  A
C1049      H1056   1.080       .  S
C1050      C1051   1.413       .  A
C1051      C1052   1.401       .  A
C1051      N1058   1.421       .  S
C1052      C1053   1.400   1_455  A
C1052      H1057   1.081       .  S
C1053      C1054   1.396       .  A
C1054      N1055   1.420       .  S
N1055      O1059   1.259       .  A
N1055      O1060   1.262       .  A
N1058      O1062   1.262       .  A
N1058      O1061   1.262       .  A
C1063      C1064   1.382       .  A
C1063      C1068   1.360       .  A
C1063      H1070   1.086       .  S
C1064      C1065   1.400       .  A
C1065      C1066   1.421       .  A
C1065      N1072   1.426       .  S
C1066      C1067   1.416       .  A
C1066      H1071   1.076       .  S
C1067      C1068   1.417       .  A
C1068      N1069   1.420   1_545  S
N1069      O1073   1.259       .  A
N1069      O1074   1.258       .  A
N1072      O1076   1.260       .  A
N1072      O1075   1.261       .  A
C1077      C1078   1.392   1_655  A
C1077      C1082   1.369       .  A
C1077      H1084   1.083       .  S
C1078      C1079   1.414       .  A
C1079      C1080   1.423       .  A
C1079      N1086   1.437       .  S
C1080      C1081   1.406       .  A
C1080      H1085   1.076       .  S
C1081      C1082   1.408   1_455  A
C1082      N1083   1.421       .  S
N1083      O1087   1.260       .  A
N1083      O1088   1.251       .  A
N1086      O1090   1.263       .  A
N1086      O1089   1.261       .  A
C1091      C1092   1.407       .  A
C1091      C1096   1.408       .  A
C1091      H1098   1.083       .  S
C1092      C1093   1.430       .  A
C1093      C1094   1.404       .  A
C1093      N1100   1.429   1_545  S
C1094      C1095   1.398       .  A
C1094      H1099   1.083       .  S
C1095      C1096   1.412       .  A
C1096      N1097   1.437       .  S
N1097      O1101   1.262       .  A
N1097      O1102   1.263       .  A
N1100      O1104   1.262   1_556  A
N1100      O1103   1.262       .  A
C1105      C1106   1.392   1_545  A
C1105      C1110   1.416       .  A
C1105      H1112   1.076       .  S
C1106      C1107   1.419       .  A
C1107      C1108   1.404       .  A
C1107      N1114   1.432       .  S
C1108      C1109   1.394   1_565  A
C1108      H1113   1.080       .  S
C1109      C1110   1.419       .  A
C1110      N1111   1.441       .  S
N1111      O1115   1.262       .  A
N1111      O1116   1.263       .  A
N1114      O1118   1.263       .  A
N1114      O1117   1.262       .  A
C1119      C1120   1.397       .  A
C1119      C1124   1.408       .  A
C1119      H1126   1.082       .  S
C1120      C1121   1.411       .  A
C1121      C1122   1.389       .  A
C1121      N1128   1.425   1_455  S
C1122      C1123   1.399       .  A
C1122      H1127   1.080   1_455  S
C1123      C1124   1.420       .  A
C1124      N1125   1.434       .  S
N1125      O1129   1.262       .  A
N1125      O1130   1.262       .  A
N1128      O1132   1.261       .  A
N1128      O1131   1.260       .  A
C1133      C1134   1.413       .  A
C1133      C1138   1.404       .  A
C1133      H1140   1.079       .  S
C1134      C1135   1.409       .  A
C1135      C1136   1.401       .  A
C1135      N1142   1.426       .  S
C1136      C1137   1.411       .  A
C1136      H1141   1.082       .  S
C1137      C1138   1.391       .  A
C1138      N1139   1.439       .  S
N1139      O1143   1.259   1_545  A
N1139      O1144   1.262       .  A
N1142      O1146   1.261       .  A
N1142      O1145   1.262   1_655  A
C1147      C1148   1.406       .  A
C1147      C1152   1.406       .  A
C1147      H1154   1.082       .  S
C1148      C1149   1.402   1_554  A
C1149      C1150   1.407       .  A
C1149      N1156   1.434       .  S
C1150      C1151   1.421   1_556  A
C1150      H1155   1.080       .  S
C1151      C1152   1.423       .  A
C1152      N1153   1.422       .  S
N1153      O1157   1.261       .  A
N1153      O1158   1.258       .  A
N1156      O1160   1.262       .  A
N1156      O1159   1.263       .  A
C1161      C1162   1.398   1_554  A
C1161      C1166   1.370       .  A
C1161      H1168   1.083       .  S
C1162      C1163   1.415       .  A
C1163      C1164   1.395       .  A
C1163      N1170   1.432       .  S
C1164      C1165   1.403   1_556  A
C1164      H1169   1.084       .  S
C1165      C1166   1.407       .  A
C1166      N1167   1.433       .  S
N1167      O1171   1.259       .  A
N1167      O1172   1.262       .  A
N1170      O1174   1.262       .  A
N1170      O1173   1.262       .  A
C1175      C1176   1.398       .  A
C1175      C1180   1.384       .  A
C1175      H1182   1.076       .  S
C1176      C1177   1.412       .  A
C1177      C1178   1.396       .  A
C1177      N1184   1.422       .  S
C1178      C1179   1.399       .  A
C1178      H1183   1.085       .  S
C1179      C1180   1.425       .  A
C1180      N1181   1.438       .  S
N1181      O1185   1.256   1_556  A
N1181      O1186   1.262       .  A
N1184      O1188   1.262       .  A
N1184      O1187   1.262   1_655  A
