geometry optimzed in LAMMPS
_audit_creation_date              2020-12-01 
_audit_creation_method            'lammps2cif' 
_symmetry_space_group_name_H-M    'P1' 
_symmetry_Int_Tables_number       1 
_symmetry_cell_setting            triclinic 
loop_ 
_symmetry_equiv_pos_as_xyz 
  x,y,z 
_cell_length_a                    25.37302728 
_cell_length_b                    24.82801881570683 
_cell_length_c                    25.545584619961804 
_cell_angle_alpha                 90.1960177052126 
_cell_angle_beta                  89.84869534975553 
_cell_angle_gamma                 89.2215284811406 
loop_ 
_atom_site_label 
_atom_site_type_symbol 
_atom_site_fract_x 
_atom_site_fract_y 
_atom_site_fract_z 
_atom_site_charge 
N1          N  0.05648390  0.06894295  0.09809300    -0.04300
N2          N  0.09530036  0.08237457  0.13002871    -0.56400
N3          N  0.92886057  0.09489543  0.06930649    -0.04000
N4          N  0.88707216  0.12542018  0.07881516    -0.58500
N5          N  0.93511891  0.05823799  0.10585699    -0.03600
N6          N  0.89781337  0.06392752  0.14192437    -0.56400
N7          N  0.04924064  0.10654471  0.06260678    -0.03200
N8          N  0.08270275  0.14596369  0.06928045    -0.58900
C9          C  0.11150925  0.13036321  0.11090340     0.97900
C10         C  0.86786123  0.10562527  0.12387525     0.97700
N11         N  0.92200206  0.06603377  0.90966881    -0.04500
N12         N  0.88327563  0.07704223  0.87683438    -0.57000
N13         N  0.04114219  0.11129192  0.94137045    -0.02600
N14         N  0.07759893  0.14802232  0.93568305    -0.58200
N15         N  0.04208002  0.07716832  0.90191239    -0.04500
N16         N  0.07920230  0.09025649  0.86807070    -0.57200
N17         N  0.92137025  0.10052324  0.94880312    -0.02200
N18         N  0.88215811  0.13533158  0.94382917    -0.58300
Mn19       Mn  0.98504663  0.10449323  0.00563818     1.18400
C20         C  0.85846671  0.11997512  0.89920371     1.00000
C21         C  0.10072938  0.13458808  0.88986473     1.00600
N22         N  0.94787043  0.93121630  0.09825622    -0.04500
N23         N  0.91043783  0.91802474  0.13180186    -0.60800
N24         N  0.06891660  0.90717246  0.05114983    -0.03300
N25         N  0.10665109  0.87085483  0.05695178    -0.61500
N26         N  0.06815459  0.94118372  0.09083842    -0.04000
N27         N  0.10561894  0.92823473  0.12461260    -0.61100
N28         N  0.94925337  0.89699595  0.05878739    -0.02900
N29         N  0.91268097  0.86032943  0.06419460    -0.61800
Mn30       Mn  0.00224988  0.99978860  0.10052213     1.10700
C31         C  0.88906199  0.87368476  0.10978369     1.01200
C32         C  0.12961946  0.88468155  0.10238589     1.01300
N33         N  0.05410565  0.95157676  0.89420014    -0.04000
N34         N  0.08828403  0.94698241  0.85552976    -0.59400
N35         N  0.94113238  0.90151777  0.93750688    -0.03300
N36         N  0.90679700  0.86280095  0.93132578    -0.56100
N37         N  0.93456474  0.93903653  0.90183256    -0.04700
N38         N  0.89582584  0.92602693  0.86977455    -0.59000
N39         N  0.06057668  0.91216272  0.92793879    -0.03600
N40         N  0.09899479  0.87927876  0.91241828    -0.56200
Mn41       Mn  0.98789477  0.00863709  0.90014548     1.20200
Mn42       Mn  0.00539574  0.90318519  0.99395527     1.10100
Cl43       Cl  0.99531927  0.00394733  0.00011505    -0.84100
C44         C  0.11603543  0.90199575  0.86744086     0.98200
C45         C  0.87899495  0.87842451  0.88908974     0.98000
C46         C  0.70656576  0.75062821  0.79686939     0.88300
C47         C  0.74300230  0.70280692  0.78333070    -0.51900
C48         C  0.78659404  0.71683497  0.75533926     0.11200
C49         C  0.78939363  0.77761589  0.74303649     0.22200
C50         C  0.74182722  0.79093291  0.82496078    -0.52600
C51         C  0.78537038  0.80518676  0.79689065     0.11400
C52         C  0.69316442  0.77748704  0.74438069    -0.52200
C53         C  0.73669101  0.79202946  0.71633256     0.11900
H54         H  0.73606089  0.66192983  0.79648281     0.16400
H55         H  0.82485442  0.78920068  0.72029288     0.02200
H56         H  0.73253297  0.80725734  0.86344913     0.16700
H57         H  0.65316311  0.78684173  0.73198959     0.16500
C58         C  0.70755083  0.75799274  0.19983783     0.88300
C59         C  0.74567155  0.79545722  0.17182154    -0.51900
C60         C  0.78849820  0.80911147  0.20112322     0.11200
C61         C  0.78884571  0.78409595  0.25604076     0.22200
C62         C  0.74145383  0.70940622  0.21660646    -0.52600
C63         C  0.78420397  0.72314210  0.24592294     0.11400
C64         C  0.69281188  0.78763916  0.25077103    -0.52200
C65         C  0.73558684  0.80140924  0.28007941     0.11900
H66         H  0.73890602  0.81013166  0.13236240     0.16400
H67         H  0.82364871  0.79528266  0.27986561     0.02200
H68         H  0.73346962  0.66822965  0.20484663     0.16700
H69         H  0.65260190  0.79832761  0.26172058     0.16500
N70         N  0.57351393  0.72364315  0.99857954    -0.34800
N71         N  0.49237952  0.73213642  0.08003639    -0.55300
N72         N  0.41014232  0.72573724  0.99983943    -0.34800
N73         N  0.49120475  0.72388548  0.91818847    -0.55300
C74         C  0.60366977  0.73515719  0.04079810     0.28800
C75         C  0.60304486  0.73202663  0.95513305     0.28800
C76         C  0.38056397  0.73860940  0.04244683     0.28800
C77         C  0.37987919  0.73404868  0.95687760     0.28800
C78         C  0.53525848  0.72668323  0.11100282     0.37400
C79         C  0.44975429  0.72841053  0.11164099     0.37400
C80         C  0.53387172  0.71712810  0.88687603     0.37400
C81         C  0.44829446  0.71737985  0.88761039     0.37400
C82         C  0.65346643  0.74988393  0.02395321    -0.20100
C83         C  0.65306662  0.74796249  0.97008009    -0.20100
C84         C  0.33046351  0.75426199  0.02635807    -0.20100
C85         C  0.33003621  0.75139405  0.97252295    -0.20100
C86         C  0.51978004  0.71997817  0.16265395    -0.21100
C87         C  0.46567921  0.72107451  0.16306008    -0.21100
C88         C  0.51796861  0.70658259  0.83600904    -0.21100
C89         C  0.46385092  0.70668867  0.83647647    -0.21100
C90         C  0.58806870  0.73160669  0.09409178    -0.16500
C91         C  0.58674479  0.72463475  0.90244299    -0.16500
C92         C  0.39542200  0.72539319  0.90404422    -0.16500
C93         C  0.39680503  0.73514181  0.09547047    -0.16500
H94         H  0.68668292  0.76113013  0.04794156     0.16400
H95         H  0.68597387  0.75739602  0.94483614     0.16400
H96         H  0.29755435  0.76664678  0.05083962     0.16400
H97         H  0.29674453  0.76117413  0.94773746     0.16400
H98         H  0.54484615  0.71551218  0.19663157     0.14700
H99         H  0.44092259  0.71757009  0.19741833     0.14700
H100        H  0.54275432  0.70041987  0.80189908     0.14700
H101        H  0.43882857  0.70067306  0.80276414     0.14700
H102        H  0.53554568  0.70897512  0.99945520     0.28000
H103        H  0.44815818  0.71011969  0.00020906     0.28000
C104        C  0.79115332  0.28334265  0.75281107     0.88300
C105        C  0.77076811  0.25572257  0.70301947    -0.51900
C106        C  0.74061480  0.21161310  0.71299398     0.11200
C107        C  0.73285996  0.19983936  0.77154771     0.22200
C108        C  0.74200907  0.29656591  0.78588833    -0.52600
C109        C  0.71184462  0.25263376  0.79623847     0.11400
C110        C  0.81961632  0.23847096  0.78297702    -0.52200
C111        C  0.78899151  0.19484403  0.79250532     0.11900
H112        H  0.78228668  0.26750182  0.66375028     0.16400
H113        H  0.70841526  0.16403247  0.77988443     0.02200
H114        H  0.73382653  0.33613621  0.80253509     0.16700
H115        H  0.86028086  0.24092879  0.79595336     0.16500
N116        N  0.71811945  0.00273629  0.42136164    -0.34800
N117        N  0.71813147  0.08419339  0.50379903    -0.55300
N118        N  0.71956233  0.99895660  0.58320170    -0.34800
N119        N  0.72624893  0.91747612  0.50064183    -0.55300
C120        C  0.72702286  0.04757814  0.39269941     0.28800
C121        C  0.73058402  0.95961689  0.39095697     0.28800
C122        C  0.72777915  0.04282720  0.61366982     0.28800
C123        C  0.73169169  0.95470370  0.61194250     0.28800
C124        C  0.71041055  0.11683329  0.46211620     0.37400
C125        C  0.71063652  0.11486598  0.54708422     0.37400
C126        C  0.72095022  0.88645643  0.45739395     0.37400
C127        C  0.72180119  0.88439635  0.54238054     0.37400
C128        C  0.74454738  0.03264550  0.34316251    -0.20100
C129        C  0.74671899  0.97728156  0.34204356    -0.20100
C130        C  0.74462860  0.02614775  0.66274608    -0.20100
C131        C  0.74702952  0.97069830  0.66167647    -0.20100
C132        C  0.69831436  0.16865910  0.47899768    -0.21100
C133        C  0.69841513  0.16742234  0.53276659    -0.21100
C134        C  0.71376888  0.83322207  0.47172036    -0.21100
C135        C  0.71433549  0.83191363  0.52550636    -0.21100
C136        C  0.71833518  0.10152278  0.40926862    -0.16500
C137        C  0.72603838  0.90476618  0.40524800    -0.16500
C138        C  0.72751226  0.90030555  0.59531708    -0.16500
C139        C  0.71882464  0.09735144  0.59914353    -0.16500
H140        H  0.75478554  0.05887626  0.31104321     0.16400
H141        H  0.75899899  0.95283448  0.30891374     0.16400
H142        H  0.75413504  0.05128804  0.69602179     0.16400
H143        H  0.75879217  0.94510229  0.69394192     0.16400
H144        H  0.69102835  0.20387019  0.45508153     0.14700
H145        H  0.69121345  0.20156366  0.55838668     0.14700
H146        H  0.70928972  0.79878871  0.44609040     0.14700
H147        H  0.71031162  0.79629201  0.54941890     0.14700
H148        H  0.70213124  0.00141524  0.45867315     0.28000
H149        H  0.70419623  0.99918463  0.54571667     0.28000
C150        C  0.79437445  0.28785443  0.25798655     0.88300
C151        C  0.82947684  0.24404379  0.23335438    -0.51900
C152        C  0.80401584  0.19748687  0.22248795     0.11200
C153        C  0.74507750  0.19880414  0.23698884     0.22200
C154        C  0.74809800  0.29541782  0.21971692    -0.52600
C155        C  0.72202324  0.24878672  0.20870164     0.11400
C156        C  0.77060503  0.26098838  0.30654832    -0.52200
C157        C  0.74514350  0.21405609  0.29559647     0.11900
H158        H  0.87128467  0.24896647  0.22579611     0.16400
H159        H  0.72454825  0.16059036  0.22816568     0.02200
H160        H  0.73715691  0.33401779  0.20274072     0.16700
H161        H  0.77637167  0.27576761  0.34617189     0.16500
N162        N  0.42054522  0.25800548  0.00714711    -0.34800
N163        N  0.50183795  0.25613554  0.92568780    -0.55300
N164        N  0.58385784  0.25567456  0.00676984    -0.34800
N165        N  0.50245916  0.25054619  0.08836364    -0.55300
C166        C  0.39037969  0.25014201  0.96401727     0.28800
C167        C  0.39034672  0.24824748  0.04989605     0.28800
C168        C  0.61344850  0.24648031  0.96325806     0.28800
C169        C  0.61402756  0.24350859  0.04899640     0.28800
C170        C  0.45907219  0.26414057  0.89501044     0.37400
C171        C  0.54457745  0.26353272  0.89494608     0.37400
C172        C  0.45947884  0.25726889  0.11956946     0.37400
C173        C  0.54559482  0.25538720  0.11926910     0.37400
C174        C  0.34010318  0.23580239  0.97967118    -0.20100
C175        C  0.34004525  0.23470590  0.03361467    -0.20100
C176        C  0.66333216  0.22885181  0.97807000    -0.20100
C177        C  0.66371052  0.22700137  0.03198680    -0.20100
C178        C  0.47475658  0.27613234  0.84438282    -0.21100
C179        C  0.52883954  0.27586631  0.84435816    -0.21100
C180        C  0.47551491  0.26571164  0.17077214    -0.21100
C181        C  0.52983775  0.26452211  0.17058191    -0.21100
C182        C  0.40617506  0.25750133  0.91105542    -0.16500
C183        C  0.40605041  0.25324031  0.10316597    -0.16500
C184        C  0.59885727  0.24897197  0.10241855    -0.16500
C185        C  0.59749703  0.25551381  0.91069780    -0.16500
H186        H  0.30672092  0.22725312  0.95483881     0.16400
H187        H  0.30658648  0.22505546  0.05805085     0.16400
H188        H  0.69617181  0.21844929  0.95267194     0.16400
H189        H  0.69691737  0.21485997  0.05592435     0.16400
H190        H  0.44985016  0.28376946  0.81080671     0.14700
H191        H  0.55371164  0.28316201  0.81070005     0.14700
H192        H  0.45066041  0.27171479  0.20484914     0.14700
H193        H  0.55486014  0.26942446  0.20446756     0.14700
H194        H  0.45883760  0.27175651  0.00756326     0.28000
H195        H  0.54609217  0.27196522  0.00763071     0.28000
C196        C  0.25340268  0.79301574  0.70949984     0.88300
C197        C  0.22114457  0.74203680  0.69950316    -0.51900
C198        C  0.20630610  0.71639366  0.74444663     0.11200
C199        C  0.22569140  0.74381580  0.79500260     0.22200
C200        C  0.21895260  0.82731501  0.74612043    -0.52600
C201        C  0.20450687  0.80198519  0.79133120     0.11400
C202        C  0.30029957  0.77481160  0.74324272    -0.52200
C203        C  0.28572142  0.74923378  0.78821083     0.11900
H204        H  0.20922290  0.72884631  0.66076927     0.16400
H205        H  0.21387315  0.72291699  0.83152107     0.02200
H206        H  0.20668938  0.86779554  0.73575572     0.16700
H207        H  0.34103159  0.78366641  0.73376066     0.16500
N208        N  0.99965212  0.58367539  0.73724061    -0.34800
N209        N  0.91638876  0.50261006  0.73848387    -0.55300
N210        N  0.99742472  0.41642257  0.73923896    -0.34800
N211        N  0.08045874  0.49755653  0.74399668    -0.55300
C212        C  0.95669640  0.61629494  0.74319370     0.28800
C213        C  0.04306156  0.61367782  0.74592385     0.28800
C214        C  0.95348632  0.38622955  0.74363787     0.28800
C215        C  0.04005036  0.38348720  0.74567382     0.28800
C216        C  0.88555138  0.54731012  0.73403281     0.37400
C217        C  0.88428182  0.45962408  0.73499058     0.37400
C218        C  0.11264919  0.54054955  0.74102147     0.37400
C219        C  0.11154315  0.45279464  0.74125593     0.37400
C220        C  0.97318033  0.66803276  0.75483159    -0.20100
C221        C  0.02741154  0.66639538  0.75653125    -0.20100
C222        C  0.96854299  0.33302922  0.75238032    -0.20100
C223        C  0.02286214  0.33131569  0.75360950    -0.20100
C224        C  0.83334562  0.53255902  0.72816510    -0.21100
C225        C  0.83253804  0.47724168  0.72881777    -0.21100
C226        C  0.16461402  0.52293208  0.73713887    -0.21100
C227        C  0.16392822  0.46760888  0.73730634    -0.21100
C228        C  0.90306946  0.60127601  0.73781398    -0.16500
C229        C  0.09645239  0.59550545  0.74350022    -0.16500
C230        C  0.09399859  0.39869074  0.74367239    -0.16500
C231        C  0.90024465  0.40472856  0.73906627    -0.16500
H232        H  0.94869827  0.70341666  0.76167538     0.16400
H233        H  0.05243646  0.70029102  0.76494532     0.16400
H234        H  0.94308792  0.29877871  0.75732166     0.16400
H235        H  0.04691954  0.29555887  0.75970667     0.16400
H236        H  0.79922672  0.55888559  0.72433785     0.14700
H237        H  0.79768189  0.45281865  0.72547366     0.14700
H238        H  0.19952385  0.54737325  0.73465256     0.14700
H239        H  0.19823550  0.44132323  0.73489412     0.14700
H240        H  0.99948667  0.54375906  0.72608339     0.28000
H241        H  0.99825472  0.45687706  0.73085831     0.28000
C242        C  0.28654406  0.24223287  0.80244618     0.88300
C243        C  0.25382942  0.29262200  0.78804858    -0.51900
C244        C  0.21030290  0.28170282  0.75848416     0.11200
C245        C  0.20427215  0.22135729  0.74524371     0.22200
C246        C  0.24731108  0.20476224  0.82871985    -0.52600
C247        C  0.20399159  0.19406481  0.79903275     0.11400
C248        C  0.30025573  0.21449253  0.75022312    -0.52200
C249        C  0.25710628  0.20310935  0.72036918     0.11900
H250        H  0.26242826  0.33267765  0.80267552     0.16400
H251        H  0.16901092  0.21226699  0.72122104     0.02200
H252        H  0.25331349  0.18832617  0.86765420     0.16700
H253        H  0.34006354  0.20231628  0.73922257     0.16500
N254        N  0.27914458  0.99963130  0.57887851    -0.34800
N255        N  0.28169715  0.91889841  0.49569429    -0.55300
N256        N  0.28232727  0.00480945  0.41704693    -0.34800
N257        N  0.27343408  0.08556521  0.50024615    -0.55300
C258        C  0.27077412  0.95427118  0.60709193     0.28800
C259        C  0.26646863  0.04250118  0.60972056     0.28800
C260        C  0.27311727  0.96128374  0.38649312     0.28800
C261        C  0.26959193  0.04913845  0.38878416     0.28800
C262        C  0.28845131  0.88568925  0.53705805     0.37400
C263        C  0.28995184  0.88872507  0.45225314     0.37400
C264        C  0.27620799  0.11649825  0.54385787     0.37400
C265        C  0.27826579  0.11899442  0.45878208     0.37400
C266        C  0.25354602  0.96870413  0.65684242    -0.20100
C267        C  0.25086457  0.02410060  0.65851624    -0.20100
C268        C  0.25508153  0.97823226  0.33792614    -0.20100
C269        C  0.25294234  0.03356663  0.33933789    -0.20100
C270        C  0.30078858  0.83403300  0.51977418    -0.21100
C271        C  0.30177991  0.83595700  0.46606745    -0.21100
C272        C  0.28225544  0.17003323  0.52994109    -0.21100
C273        C  0.28356281  0.17160248  0.47613650    -0.21100
C274        C  0.27941590  0.90029562  0.58987618    -0.16500
C275        C  0.26985698  0.09778575  0.59585336    -0.16500
C276        C  0.27393561  0.10327900  0.40562084    -0.16500
C277        C  0.28202610  0.90678386  0.40046649    -0.16500
H278        H  0.24390019  0.94217138  0.68881328     0.16400
H279        H  0.23859911  0.04807490  0.69196877     0.16400
H280        H  0.24446146  0.95334203  0.30481807     0.16400
H281        H  0.24024668  0.05935433  0.30755790     0.16400
H282        H  0.30744214  0.79846482  0.54336112     0.14700
H283        H  0.30924495  0.80212046  0.44013096     0.14700
H284        H  0.28465060  0.20451370  0.55582587     0.14700
H285        H  0.28703942  0.20749033  0.45250346     0.14700
H286        H  0.29460502  0.00140313  0.54140306     0.28000
H287        H  0.29863942  0.00433817  0.45419547     0.28000
C288        C  0.20162810  0.28939382  0.25037310     0.88300
C289        C  0.22025813  0.26008683  0.29975481    -0.51900
C290        C  0.24887433  0.21431394  0.28967747     0.11200
C291        C  0.25677727  0.20214917  0.23083252     0.22200
C292        C  0.25197557  0.29977540  0.21823168    -0.52600
C293        C  0.28100819  0.25388017  0.20776454     0.11400
C294        C  0.17197131  0.24719094  0.21907658    -0.52200
C295        C  0.20047278  0.20144615  0.20852597     0.11900
H296        H  0.20957633  0.27292973  0.33913307     0.16400
H297        H  0.27984817  0.16471779  0.22252042     0.02200
H298        H  0.26272071  0.33924091  0.20379927     0.16700
H299        H  0.13125963  0.25275273  0.20681511     0.16500
C300        C  0.20006822  0.72338258  0.25121538     0.88300
C301        C  0.17193354  0.76764224  0.22003575    -0.51900
C302        C  0.20324548  0.81019165  0.20828285     0.11200
C303        C  0.25982922  0.80452696  0.22842891     0.22200
C304        C  0.24819890  0.70757941  0.21783910    -0.52600
C305        C  0.27932253  0.75022679  0.20560734     0.11400
C306        C  0.22206596  0.75203151  0.29953398    -0.52200
C307        C  0.25312778  0.79473529  0.28743583     0.11900
H308        H  0.13087748  0.76565735  0.20821734     0.16400
H309        H  0.28502808  0.83933000  0.21849922     0.02200
H310        H  0.25568614  0.66700019  0.20332622     0.16700
H311        H  0.21162724  0.74151919  0.33945807     0.16500
N312        N  0.99425757  0.42577054  0.28297011    -0.34800
N313        N  0.07574123  0.50767956  0.27742217    -0.55300
N314        N  0.99471052  0.59260842  0.27977510    -0.29400
N315        N  0.91295642  0.51076323  0.27919262    -0.55300
C316        C  0.03728629  0.39465649  0.27170951     0.28800
C317        C  0.95081110  0.39610594  0.27329460     0.28800
C318        C  0.03795573  0.62136777  0.26743357     0.28800
C319        C  0.95183891  0.62319047  0.26774271     0.28800
C320        C  0.10681320  0.46372042  0.28453499     0.37400
C321        C  0.10689767  0.55087705  0.28387727     0.37400
C322        C  0.88157476  0.46781162  0.28669038     0.37400
C323        C  0.88209282  0.55531360  0.28479824     0.37400
C324        C  0.02092474  0.34410618  0.25586035    -0.20100
C325        C  0.96658723  0.34499827  0.25690748    -0.20100
C326        C  0.02237681  0.67123083  0.24806740    -0.20100
C327        C  0.96811664  0.67238856  0.24826802    -0.20100
C328        C  0.15801555  0.47906329  0.29532661    -0.21100
C329        C  0.15805602  0.53429981  0.29495679    -0.21100
C330        C  0.83038008  0.48521248  0.29688929    -0.21100
C331        C  0.83071262  0.54057076  0.29571341    -0.21100
C332        C  0.09084849  0.41014447  0.27653259    -0.16500
C333        C  0.89742590  0.41329676  0.27987218    -0.16500
C334        C  0.89854114  0.60869583  0.27543638    -0.16500
C335        C  0.09099412  0.60470557  0.27498772    -0.16500
H336        H  0.04554610  0.31005571  0.24455712     0.16400
H337        H  0.94160431  0.31173917  0.24645863     0.16400
H338        H  0.04747261  0.70349727  0.23509981     0.16400
H339        H  0.94348521  0.70573844  0.23548139     0.16400
H340        H  0.19200422  0.45314721  0.30183430     0.14700
H341        H  0.19209646  0.55936052  0.30100107     0.14700
H342        H  0.79613677  0.46057648  0.30345480     0.14700
H343        H  0.79677916  0.56691372  0.30115374     0.14700
H344        H  0.99449656  0.46450488  0.29819263     0.28000
H345        H  0.99452882  0.55520321  0.29772738     0.28000
C346        C  0.16464099  0.67876210  0.26312305    -0.11400
C347        C  0.13186371  0.64467580  0.26980073    -0.13000
C348        C  0.13246746  0.36969262  0.26913182    -0.11400
C349        C  0.16687161  0.33627690  0.26130472    -0.13000
C350        C  0.27782337  0.86626460  0.35972969    -0.11400
C351        C  0.26965101  0.83281124  0.32652416    -0.13000
C352        C  0.26300935  0.17715836  0.33097164    -0.11400
C353        C  0.26978423  0.14495076  0.36581046    -0.13000
C354        C  0.26459042  0.13780327  0.63769414    -0.11400
C355        C  0.26065141  0.16924011  0.67398546    -0.13000
C356        C  0.16899107  0.32186900  0.74940773    -0.11400
C357        C  0.13441063  0.35599327  0.74573997    -0.13000
C358        C  0.27492967  0.85709424  0.62827337    -0.11400
C359        C  0.26769131  0.82419566  0.66245176    -0.13000
C360        C  0.17005753  0.67160334  0.74455730    -0.11400
C361        C  0.13742094  0.63635012  0.74445351    -0.13000
C362        C  0.36432636  0.25330035  0.14316973    -0.11400
C363        C  0.32750047  0.25354112  0.17386639    -0.13000
C364        C  0.33184678  0.25219940  0.83729595    -0.11400
C365        C  0.36591168  0.25593093  0.87028871    -0.13000
C366        C  0.82503190  0.33687112  0.26909133    -0.11400
C367        C  0.85631424  0.37285047  0.27542598    -0.13000
C368        C  0.64080880  0.24732227  0.14195359    -0.11400
C369        C  0.67724480  0.24709462  0.17291216    -0.13000
C370        C  0.72959018  0.17704972  0.33635100    -0.11400
C371        C  0.72208595  0.14380724  0.37002175    -0.13000
C372        C  0.85890154  0.36438628  0.74035275    -0.11400
C373        C  0.82617249  0.32945352  0.74377740    -0.13000
C374        C  0.67034837  0.25389822  0.83523709    -0.11400
C375        C  0.63763043  0.25456433  0.86979146    -0.13000
C376        C  0.72772369  0.17285528  0.67277874    -0.11400
C377        C  0.72182006  0.13850966  0.63971106    -0.13000
C378        C  0.32256312  0.74539907  0.16888099    -0.11400
C379        C  0.35665714  0.74078320  0.13597244    -0.13000
C380        C  0.35520626  0.72941262  0.86354295    -0.11400
C381        C  0.32312533  0.73608561  0.82910269    -0.13000
C382        C  0.73142525  0.83431922  0.32667108    -0.11400
C383        C  0.72875598  0.86489005  0.36349938    -0.13000
C384        C  0.85802766  0.65032173  0.26919976    -0.11400
C385        C  0.82428441  0.68407496  0.26075025    -0.13000
C386        C  0.66265004  0.74441856  0.16608592    -0.11400
C387        C  0.62840284  0.73704989  0.13411418    -0.13000
C388        C  0.62640419  0.72916408  0.86143041    -0.11400
C389        C  0.66083572  0.73657262  0.82950791    -0.13000
C390        C  0.73331713  0.82612312  0.67049260    -0.11400
C391        C  0.73068949  0.85844864  0.63516392    -0.13000
C392        C  0.82873995  0.67829560  0.74439835    -0.11400
C393        C  0.86293014  0.64401415  0.73974622    -0.13000
C394        C  0.82528222  0.84314881  0.81662130    -0.14600
C395        C  0.83635435  0.84583752  0.86782010    -0.29800
H396        H  0.84840824  0.86576661  0.78864488     0.14400
H397        H  0.81706949  0.81890132  0.89500580     0.15000
C398        C  0.80861294  0.14840540  0.82213081    -0.14600
C399        C  0.82071378  0.15522788  0.87249779    -0.29800
H400        H  0.81995624  0.11201117  0.80100964     0.14400
H401        H  0.80917595  0.19247604  0.89223196     0.15000
C402        C  0.17040796  0.82670419  0.83255963    -0.14600
C403        C  0.15557234  0.87885884  0.83168476    -0.29800
H404        H  0.15573723  0.80072611  0.86330180     0.14400
H405        H  0.16952799  0.90565690  0.80152958     0.15000
C406        C  0.83135320  0.84360104  0.18156923    -0.14600
C407        C  0.84474602  0.84327503  0.13078944    -0.29800
H408        H  0.85435895  0.86631925  0.20959058     0.14400
H409        H  0.82485249  0.81667890  0.10365326     0.15000
C410        C  0.18356304  0.85621887  0.17766346    -0.14600
C411        C  0.16503915  0.84717595  0.12959575    -0.29800
H412        H  0.17957814  0.89545458  0.19626731     0.14400
H413        H  0.17099282  0.80766035  0.11182924     0.15000
C414        C  0.82522056  0.13340557  0.15273749    -0.14600
C415        C  0.83326282  0.15031182  0.20171147    -0.29800
H416        H  0.79320249  0.15128894  0.13023129     0.14400
H417        H  0.86932605  0.13829993  0.22167375     0.15000
C418        C  0.14521903  0.16427692  0.86862943    -0.14600
C419        C  0.15955806  0.16178796  0.81818155    -0.29800
H420        H  0.16526155  0.19125742  0.89532382     0.14400
H421        H  0.13661919  0.13883827  0.79028638     0.15000
C422        C  0.17722727  0.15631874  0.17872779    -0.14600
C423        C  0.14793853  0.16763395  0.13642687    -0.29800
H424        H  0.18123722  0.11541436  0.19320204     0.14400
H425        H  0.14748102  0.20858970  0.12143840     0.15000
loop_ 
_geom_bond_atom_site_label_1 
_geom_bond_atom_site_label_2 
_geom_bond_distance 
_geom_bond_site_symmetry_2 
_ccdc_geom_bond_type 
N1            N2   1.326       .  A
N1            N7   1.315       .  A
N1          Mn30   2.216   1_545  S
N2            C9   1.358       .  A
N3            N5   1.315       .  A
N3            N4   1.316       .  A
N3          Mn19   2.176       .  S
N4           C10   1.346       .  A
N5            N6   1.325       .  A
N5          Mn30   2.226   1_645  S
N6           C10   1.359       .  A
N7            N8   1.315       .  A
N7          Mn19   2.188   1_455  S
N8            C9   1.347       .  A
C9          C423   1.469       .  S
C10         C414   1.470       .  S
N11          N17   1.314       .  A
N11          N12   1.320       .  A
N11         Mn41   2.195       .  S
N12          C20   1.355       .  A
N13          N14   1.316       .  A
N13          N15   1.314       .  A
N13         Mn19   2.178   1_456  S
N14          C21   1.347       .  A
N15          N16   1.321       .  A
N15         Mn41   2.202   1_455  S
N16          C21   1.354       .  A
N17          N18   1.316       .  A
N17         Mn19   2.178   1_556  S
N18          C20   1.347       .  A
Mn19        Cl43   2.510       .  S
C20         C399   1.461       .  S
C21         C418   1.461       .  S
N22          N23   1.323       .  A
N22          N28   1.316       .  A
N22         Mn30   2.207   1_655  S
N23          C31   1.355       .  A
N24          N26   1.317       .  A
N24          N25   1.315       .  A
N24         Mn42   2.181   1_554  S
N25          C32   1.346       .  A
N26          N27   1.323       .  A
N26         Mn30   2.214       .  S
N27          C32   1.356       .  A
N28          N29   1.316       .  A
N28         Mn42   2.189   1_654  S
N29          C31   1.347       .  A
Mn30        Cl43   2.574   1_465  S
C31         C407   1.465       .  S
C32         C411   1.464       .  S
N33          N34   1.316       .  A
N33          N39   1.315       .  A
N33         Mn41   2.187   1_465  S
N34          C44   1.348       .  A
N35          N36   1.315       .  A
N35          N37   1.315       .  A
N35         Mn42   2.180   1_655  S
N36          C45   1.346       .  A
N37          N38   1.324       .  A
N37         Mn41   2.210   1_565  S
N38          C45   1.356       .  A
N39          N40   1.322       .  A
N39         Mn42   2.203       .  S
N40          C44   1.354       .  A
Mn41        Cl43   2.564   1_556  S
Mn42        Cl43   2.516   1_466  S
C44         C403   1.465       .  S
C45         C395   1.464       .  S
C46          C47   1.533       .  S
C46          C52   1.536       .  S
C46          C50   1.530       .  S
C46         C389   1.473       .  S
C47          H54   1.087       .  S
C47          C48   1.365       .  D
C48          C49   1.545       .  S
C48         C392   1.451       .  S
C49          C53   1.541       .  S
C49          C51   1.537       .  S
C49          H55   1.111       .  S
C50          H56   1.086       .  S
C50          C51   1.367       .  D
C51         C394   1.481       .  S
C52          H57   1.086       .  S
C52          C53   1.368       .  D
C53         C390   1.449       .  S
C58          C59   1.529       .  S
C58          C64   1.536       .  S
C58          C62   1.535       .  S
C58         C386   1.473       .  S
C59          H66   1.086       .  S
C59          C60   1.367       .  D
C60          C61   1.536       .  S
C60         C406   1.480       .  S
C61          C65   1.538       .  S
C61          C63   1.541       .  S
C61          H67   1.112       .  S
C62          H68   1.086       .  S
C62          C63   1.366       .  D
C63         C385   1.448       .  S
C64          H69   1.086       .  S
C64          C65   1.367       .  D
C65         C382   1.444       .  S
N70          C75   1.356       .  A
N70          C74   1.356   1_556  A
N70         H102   1.035       .  S
N71          C78   1.352       .  A
N71          C79   1.352       .  A
N72          C77   1.356       .  A
N72          C76   1.355   1_556  A
N72         H103   1.035   1_556  S
N73          C80   1.353       .  A
N73          C81   1.353       .  A
C74          C82   1.388       .  A
C74          C90   1.420       .  A
C75          C91   1.421       .  A
C75          C83   1.389       .  A
C76          C84   1.388       .  A
C76          C93   1.419       .  A
C77          C92   1.420       .  A
C77          C85   1.388       .  A
C78          C90   1.414       .  A
C78          C86   1.387       .  A
C79          C93   1.415       .  A
C79          C87   1.387       .  A
C80          C88   1.387       .  A
C80          C91   1.415       .  A
C81          C89   1.387       .  A
C81          C92   1.416       .  A
C82          C83   1.377   1_554  A
C82          H94   1.082       .  S
C83          H95   1.082       .  S
C84          C85   1.377   1_554  A
C84          H96   1.083       .  S
C85          H97   1.082       .  S
C86          C87   1.373       .  A
C86          H98   1.083       .  S
C87          H99   1.082       .  S
C88          C89   1.373       .  A
C88         H100   1.082       .  S
C89         H101   1.082       .  S
C90         C387   1.456       .  S
C91         C388   1.456       .  S
C92         C380   1.458       .  S
C93         C379   1.455       .  S
C104        C105   1.537       .  S
C104        C110   1.531       .  S
C104        C108   1.536       .  S
C104        C373   1.477       .  S
C105        H112   1.086       .  S
C105        C106   1.369       .  D
C106        C107   1.538       .  S
C106        C376   1.446       .  S
C107        C111   1.526       .  S
C107        C109   1.541       .  S
C107        H113   1.112       .  S
C108        H114   1.086       .  S
C108        C109   1.367       .  D
C109        C374   1.448       .  S
C110        H115   1.087       .  S
C110        C111   1.364       .  D
C111        C398   1.464       .  S
N116        C121   1.354   1_545  A
N116        C120   1.356       .  A
N116        H148   1.036       .  S
N117        C124   1.353       .  A
N117        C125   1.352       .  A
N118        C123   1.356       .  A
N118        C122   1.355   1_565  A
N118        H149   1.035       .  S
N119        C126   1.353       .  A
N119        C127   1.354       .  A
C120        C128   1.388       .  A
C120        C136   1.417       .  A
C121        C137   1.417       .  A
C121        C129   1.388       .  A
C122        C130   1.388       .  A
C122        C139   1.420       .  A
C123        C138   1.420       .  A
C123        C131   1.388       .  A
C124        C136   1.414       .  A
C124        C132   1.386       .  A
C125        C139   1.416       .  A
C125        C133   1.388       .  A
C126        C134   1.387       .  A
C126        C137   1.415       .  A
C127        C135   1.387       .  A
C127        C138   1.416       .  A
C128        C129   1.375   1_545  A
C128        H140   1.083       .  S
C129        H141   1.082       .  S
C130        C131   1.377   1_545  A
C130        H142   1.083       .  S
C131        H143   1.083       .  S
C132        C133   1.374       .  A
C132        H144   1.082       .  S
C133        H145   1.082       .  S
C134        C135   1.375       .  A
C134        H146   1.082       .  S
C135        H147   1.082       .  S
C136        C371   1.458       .  S
C137        C383   1.454       .  S
C138        C391   1.459       .  S
C139        C377   1.456       .  S
C150        C151   1.529       .  S
C150        C156   1.536       .  S
C150        C154   1.540       .  S
C150        C366   1.480       .  S
C151        H158   1.086       .  S
C151        C152   1.360       .  D
C152        C153   1.540       .  S
C152        C415   1.475       .  S
C153        C157   1.543       .  S
C153        C155   1.547       .  S
C153        H159   1.111       .  S
C154        H160   1.086       .  S
C154        C155   1.370       .  D
C155        C369   1.461       .  S
C156        H161   1.086       .  S
C156        C157   1.368       .  D
C157        C370   1.448       .  S
N162        C167   1.357       .  A
N162        C166   1.358   1_554  A
N162        H194   1.034       .  S
N163        C170   1.353       .  A
N163        C171   1.352       .  A
N164        C169   1.357       .  A
N164        C168   1.357   1_554  A
N164        H195   1.035       .  S
N165        C172   1.357       .  A
N165        C173   1.358       .  A
C166        C174   1.387       .  A
C166        C182   1.423       .  A
C167        C183   1.424       .  A
C167        C175   1.389       .  A
C168        C176   1.388       .  A
C168        C185   1.421       .  A
C169        C184   1.423       .  A
C169        C177   1.388       .  A
C170        C182   1.414       .  A
C170        C178   1.387       .  A
C171        C185   1.414       .  A
C171        C179   1.388       .  A
C172        C180   1.387       .  A
C172        C183   1.425       .  A
C173        C181   1.386       .  A
C173        C184   1.424       .  A
C174        C175   1.378   1_556  A
C174        H186   1.082       .  S
C175        H187   1.082       .  S
C176        C177   1.378   1_556  A
C176        H188   1.083       .  S
C177        H189   1.082       .  S
C178        C179   1.372       .  A
C178        H190   1.082       .  S
C179        H191   1.082       .  S
C180        C181   1.378       .  A
C180        H192   1.082       .  S
C181        H193   1.082       .  S
C182        C365   1.462       .  S
C183        C362   1.469       .  S
C184        C368   1.470       .  S
C185        C375   1.457       .  S
C196        C197   1.538       .  S
C196        C202   1.535       .  S
C196        C200   1.528       .  S
C196        C359   1.479       .  S
C197        H204   1.086       .  S
C197        C198   1.369       .  D
C198        C199   1.543       .  S
C198        C360   1.453       .  S
C199        C203   1.540       .  S
C199        C201   1.537       .  S
C199        H205   1.112       .  S
C200        H206   1.082       .  S
C200        C201   1.368       .  D
C201        C402   1.487       .  S
C202        H207   1.086       .  S
C202        C203   1.367       .  D
C203        C381   1.448       .  S
N208        C213   1.356   1_655  A
N208        C212   1.357       .  A
N208        H240   1.030       .  S
N209        C216   1.354       .  A
N209        C217   1.354       .  A
N210        C215   1.358   1_655  A
N210        C214   1.356       .  A
N210        H241   1.028       .  S
N211        C218   1.355       .  A
N211        C219   1.356       .  A
C212        C220   1.388       .  A
C212        C228   1.423       .  A
C213        C229   1.423       .  A
C213        C221   1.388       .  A
C214        C222   1.389       .  A
C214        C231   1.426       .  A
C215        C230   1.426       .  A
C215        C223   1.388       .  A
C216        C228   1.420       .  A
C216        C224   1.387       .  A
C217        C231   1.421       .  A
C217        C225   1.388       .  A
C218        C226   1.387       .  A
C218        C229   1.421       .  A
C219        C227   1.387       .  A
C219        C230   1.422       .  A
C220        C221   1.377   1_655  A
C220        H232   1.082       .  S
C221        H233   1.082       .  S
C222        C223   1.379   1_655  A
C222        H234   1.082       .  S
C223        H235   1.082       .  S
C224        C225   1.374       .  A
C224        H236   1.082       .  S
C225        H237   1.082       .  S
C226        C227   1.374       .  A
C226        H238   1.082       .  S
C227        H239   1.082       .  S
C228        C393   1.461       .  S
C229        C361   1.462       .  S
C230        C357   1.466       .  S
C231        C372   1.461       .  S
C242        C243   1.538       .  S
C242        C248   1.536       .  S
C242        C246   1.527       .  S
C242        C364   1.479       .  S
C243        H250   1.086       .  S
C243        C244   1.369       .  D
C244        C245   1.545       .  S
C244        C356   1.457       .  S
C245        C249   1.544       .  S
C245        C247   1.534       .  S
C245        H251   1.111       .  S
C246        H252   1.087       .  S
C246        C247   1.366       .  D
C247        C419   1.475       .  S
C248        H253   1.086       .  S
C248        C249   1.368       .  D
C249        C355   1.453       .  S
N254        C259   1.357   1_565  A
N254        C258   1.358       .  A
N254        H286   1.035   1_565  S
N255        C262   1.352       .  A
N255        C263   1.351       .  A
N256        C261   1.354       .  A
N256        C260   1.354   1_545  A
N256        H287   1.036       .  S
N257        C264   1.354       .  A
N257        C265   1.354       .  A
C258        C266   1.387       .  A
C258        C274   1.423       .  A
C259        C275   1.422       .  A
C259        C267   1.388       .  A
C260        C268   1.388       .  A
C260        C277   1.416       .  A
C261        C276   1.416       .  A
C261        C269   1.388       .  A
C262        C274   1.413       .  A
C262        C270   1.386       .  A
C263        C277   1.412       .  A
C263        C271   1.387       .  A
C264        C272   1.387       .  A
C264        C275   1.418       .  A
C265        C273   1.386       .  A
C265        C276   1.417       .  A
C266        C267   1.377   1_565  A
C266        H278   1.081       .  S
C267        H279   1.082       .  S
C268        C269   1.375   1_565  A
C268        H280   1.083       .  S
C269        H281   1.083       .  S
C270        C271   1.373       .  A
C270        H282   1.082       .  S
C271        H283   1.083       .  S
C272        C273   1.375       .  A
C272        H284   1.082       .  S
C273        H285   1.082       .  S
C274        C358   1.461       .  S
C275        C354   1.461       .  S
C276        C353   1.456       .  S
C277        C350   1.450       .  S
C288        C289   1.531       .  S
C288        C294   1.524       .  S
C288        C292   1.542       .  S
C288        C349   1.476       .  S
C289        H296   1.087       .  S
C289        C290   1.364       .  D
C290        C291   1.544       .  S
C290        C352   1.446       .  S
C291        C295   1.540       .  S
C291        C293   1.549       .  S
C291        H297   1.111       .  S
C292        H298   1.086       .  S
C292        C293   1.374       .  D
C293        C363   1.461       .  S
C294        H299   1.087       .  S
C294        C295   1.364       .  D
C295        C422   1.482       .  S
C300        C301   1.529       .  S
C300        C306   1.533       .  S
C300        C304   1.533       .  S
C300        C346   1.468       .  S
C301        H308   1.087       .  S
C301        C302   1.364       .  D
C302        C303   1.531       .  S
C302        C410   1.470       .  S
C303        C307   1.537       .  S
C303        C305   1.542       .  S
C303        H309   1.112       .  S
C304        H310   1.086       .  S
C304        C305   1.366       .  D
C305        C378   1.445       .  S
C306        H311   1.087       .  S
C306        C307   1.365       .  D
C307        C351   1.440       .  S
N312        C317   1.357       .  A
N312        C316   1.358   1_655  A
N312        H344   1.036       .  S
N313        C320   1.351       .  A
N313        C321   1.351       .  A
N314        C319   1.355       .  A
N314        C318   1.354   1_655  A
N314        H345   1.037       .  S
N315        C322   1.353       .  A
N315        C323   1.354       .  A
C316        C324   1.387       .  A
C316        C332   1.423       .  A
C317        C333   1.424       .  A
C317        C325   1.388       .  A
C318        C326   1.388       .  A
C318        C335   1.416       .  A
C319        C334   1.417       .  A
C319        C327   1.388       .  A
C320        C332   1.410       .  A
C320        C328   1.387       .  A
C321        C335   1.410       .  A
C321        C329   1.387       .  A
C322        C330   1.387       .  A
C322        C333   1.417       .  A
C323        C331   1.387       .  A
C323        C334   1.416       .  A
C324        C325   1.379   1_455  A
C324        H336   1.082       .  S
C325        H337   1.081       .  S
C326        C327   1.377   1_455  A
C326        H338   1.082       .  S
C327        H339   1.082       .  S
C328        C329   1.371       .  A
C328        H340   1.082       .  S
C329        H341   1.082       .  S
C330        C331   1.375       .  A
C330        H342   1.082       .  S
C331        H343   1.083       .  S
C332        C348   1.459       .  S
C333        C367   1.462       .  S
C334        C384   1.457       .  S
C335        C347   1.451       .  S
C346        C347   1.207       .  T
C348        C349   1.212       .  T
C350        C351   1.205       .  T
C352        C353   1.210       .  T
C354        C355   1.213       .  T
C356        C357   1.215       .  T
C358        C359   1.213       .  T
C360        C361   1.213       .  T
C362        C363   1.218       .  T
C364        C365   1.213       .  T
C366        C367   1.214       .  T
C368        C369   1.218       .  T
C370        C371   1.211       .  T
C372        C373   1.212       .  T
C374        C375   1.210       .  T
C376        C377   1.209       .  T
C378        C379   1.209       .  T
C380        C381   1.210       .  T
C382        C383   1.208       .  T
C384        C385   1.210       .  T
C386        C387   1.209       .  T
C388        C389   1.210       .  T
C390        C391   1.211       .  T
C392        C393   1.212       .  T
C394        H396   1.086       .  S
C394        C395   1.340       .  D
C395        H397   1.086       .  S
C398        H400   1.086       .  S
C398        C399   1.334       .  D
C399        H401   1.088       .  S
C402        H404   1.086       .  S
C402        C403   1.344       .  D
C403        H405   1.082       .  S
C406        H408   1.086       .  S
C406        C407   1.340       .  D
C407        H409   1.086       .  S
C410        H412   1.086       .  S
C410        C411   1.335       .  D
C411        H413   1.088       .  S
C414        H416   1.087       .  S
C414        C415   1.335       .  D
C415        H417   1.087       .  S
C418        H420   1.086       .  S
C418        C419   1.339       .  D
C419        H421   1.086       .  S
C422        H424   1.086       .  S
C422        C423   1.341       .  D
C423        H425   1.088       .  S
