geometry optimzed in LAMMPS
_audit_creation_date              2020-12-01 
_audit_creation_method            'lammps2cif' 
_symmetry_space_group_name_H-M    'P1' 
_symmetry_Int_Tables_number       1 
_symmetry_cell_setting            triclinic 
loop_ 
_symmetry_equiv_pos_as_xyz 
  x,y,z 
_cell_length_a                    28.98482994 
_cell_length_b                    29.216095499235024 
_cell_length_c                    39.972752298181454 
_cell_angle_alpha                 89.76282357065757 
_cell_angle_beta                  89.9181590955062 
_cell_angle_gamma                 89.79828550496326 
loop_ 
_atom_site_label 
_atom_site_type_symbol 
_atom_site_fract_x 
_atom_site_fract_y 
_atom_site_fract_z 
_atom_site_charge 
O1          O  0.81403552  0.85515938  0.62545560    -0.74100
O2          O  0.86744947  0.97507976  0.63402292    -0.74100
O3          O  0.86574625  0.91015058  0.58556490    -0.74200
O4          O  0.81387175  0.91977140  0.67316917    -0.74200
O5          O  0.87673379  0.88714437  0.69481218    -0.74200
O6          O  0.92976509  0.87943953  0.60664026    -0.74100
O7          O  0.92986545  0.94264641  0.65664081    -0.74100
O8          O  0.87834120  0.82388074  0.64594277    -0.74200
Ni9        Ni  0.83809016  0.91630735  0.62875427     1.25400
Ni10       Ni  0.90603710  0.88236141  0.65173773     1.25400
C11         C  0.83728910  0.81983718  0.63481232     0.88100
C12         C  0.90771123  0.97827618  0.64711547     0.88000
C13         C  0.90568736  0.89238904  0.58128462     0.88000
C14         C  0.83587179  0.90362806  0.69831038     0.88200
O15         O  0.17538070  0.19800563  0.62370746    -0.74100
O16         O  0.05165645  0.15114010  0.63031896    -0.74100
O17         O  0.10665156  0.20334388  0.67038027    -0.74200
O18         O  0.11999227  0.14754668  0.58447404    -0.74200
O19         O  0.14886026  0.08425860  0.60784227    -0.74200
O20         O  0.13442111  0.13997292  0.69420905    -0.74100
O21         O  0.08087646  0.08837020  0.65433409    -0.74100
O22         O  0.20317344  0.13484216  0.64767057    -0.74200
Ni23       Ni  0.11247384  0.17737841  0.62643934     1.25400
Ni24       Ni  0.14273464  0.10968568  0.65194800     1.25400
C25         C  0.20980287  0.17366227  0.63368816     0.88100
C26         C  0.04636347  0.11132926  0.64333957     0.88000
C27         C  0.11777299  0.18064160  0.69664986     0.88000
C28         C  0.13700908  0.10723391  0.58182833     0.88200
O29         O  0.15699496  0.23097813  0.90424589    -0.74100
O30         O  0.03363552  0.28048404  0.89818572    -0.74100
O31         O  0.08980633  0.23025620  0.85675027    -0.74200
O32         O  0.10124601  0.27983739  0.94549987    -0.74200
O33         O  0.13054524  0.34380950  0.92383650    -0.74200
O34         O  0.11924950  0.29440477  0.83561055    -0.74100
O35         O  0.06421185  0.34381914  0.87625758    -0.74100
O36         O  0.18575362  0.29531052  0.88293805    -0.74200
Ni37       Ni  0.09427936  0.25300674  0.90193029     1.25400
Ni38       Ni  0.12573253  0.32157747  0.87893571     1.25400
C39         C  0.19174359  0.25508006  0.89476951     0.88100
C40         C  0.02907263  0.32087008  0.88590786     0.88000
C41         C  0.10332121  0.25390768  0.83147460     0.88000
C42         C  0.11887417  0.31962478  0.94932420     0.88200
O43         O  0.81238766  0.59112485  0.90630528    -0.74100
O44         O  0.86055362  0.46846147  0.89831800    -0.74100
O45         O  0.86214050  0.53414347  0.94636786    -0.74200
O46         O  0.81012992  0.52572440  0.85887115    -0.74200
O47         O  0.87463435  0.55393217  0.83672436    -0.74200
O48         O  0.92711364  0.56217343  0.92495399    -0.74100
O49         O  0.92478404  0.49730696  0.87601042    -0.74100
O50         O  0.87747904  0.61850630  0.88462672    -0.74200
Ni51       Ni  0.83407152  0.52875861  0.90330390     1.25400
Ni52       Ni  0.90340212  0.55881023  0.87989269     1.25400
C53         C  0.83675916  0.62504497  0.89602854     0.88100
C54         C  0.90053666  0.46294409  0.88511051     0.88000
C55         C  0.90271958  0.55042982  0.95039864     0.88000
C56         C  0.83322220  0.53932429  0.83339090     0.88200
O57         O  0.42890885  0.23441675  0.62108139    -0.74100
O58         O  0.54237871  0.30118553  0.63316036    -0.74100
O59         O  0.49065228  0.24230056  0.67140114    -0.74200
O60         O  0.48020642  0.29151324  0.58279436    -0.74200
O61         O  0.44184737  0.35136007  0.60312691    -0.74200
O62         O  0.45015983  0.30090475  0.69188344    -0.74100
O63         O  0.50196781  0.35905844  0.65477919    -0.74100
O64         O  0.38988734  0.29484304  0.64022716    -0.74200
Ni65       Ni  0.48720534  0.26525148  0.62648330     1.25400
Ni66       Ni  0.44475403  0.32865736  0.64825518     1.25400
C67         C  0.39062263  0.25441924  0.62815832     0.88100
C68         C  0.54045425  0.34146675  0.64587105     0.88000
C69         C  0.47087899  0.26244759  0.69599896     0.88000
C70         C  0.45817604  0.32902005  0.57812847     0.88200
O71         O  0.77216504  0.60660420  0.63465132    -0.74100
O72         O  0.71316232  0.48863406  0.63480898    -0.74100
O73         O  0.72217644  0.55831098  0.59070412    -0.74200
O74         O  0.76509411  0.53688802  0.67911197    -0.74200
O75         O  0.70237353  0.56980238  0.70065161    -0.74200
O76         O  0.65824702  0.59032330  0.61086538    -0.74100
O77         O  0.65052361  0.52169075  0.65656521    -0.74100
O78         O  0.70826689  0.63864481  0.65492079    -0.74200
Ni79       Ni  0.74538795  0.54636609  0.63420710     1.25400
Ni80       Ni  0.67746976  0.58108115  0.65652731     1.25400
C81         C  0.74950630  0.64227366  0.64392895     0.88100
C82         C  0.67165543  0.48613775  0.64577884     0.88000
C83         C  0.68375830  0.57872767  0.58594718     0.88000
C84         C  0.74197926  0.55067498  0.70446246     0.88200
O85         O  0.77584912  0.84286996  0.90329898    -0.74100
O86         O  0.70982538  0.95712107  0.89353005    -0.74100
O87         O  0.71648316  0.89200704  0.94148788    -0.74200
O88         O  0.77099135  0.90820958  0.85530225    -0.74200
O89         O  0.71284327  0.87006042  0.83211435    -0.74200
O90         O  0.65712321  0.85556003  0.91854988    -0.74100
O91         O  0.65250571  0.91875378  0.86937762    -0.74100
O92         O  0.71582027  0.80611859  0.88119559    -0.74200
Ni93       Ni  0.74544734  0.90148753  0.89919623     1.25400
Ni94       Ni  0.68251458  0.86142117  0.87443946     1.25400
C95         C  0.75596729  0.80574928  0.89424525     0.88100
C96         C  0.66975778  0.95620682  0.87988943     0.88000
C97         C  0.67809006  0.87096520  0.94439037     0.88000
C98         C  0.75149132  0.89112682  0.82954206     0.88200
O99         O  0.40923662  0.19057713  0.89808700    -0.74100
O100        O  0.52511106  0.12847194  0.88655009    -0.74100
O101        O  0.47361492  0.18686960  0.84898185    -0.74200
O102        O  0.46102275  0.13307885  0.93526671    -0.74200
O103        O  0.42512939  0.07282840  0.91370949    -0.74200
O104        O  0.43609363  0.12839850  0.82625872    -0.74100
O105        O  0.48816953  0.06988263  0.86327458    -0.74100
O106        O  0.37277082  0.13024338  0.87685389    -0.74200
Ni107      Ni  0.46858393  0.16184142  0.89292268     1.25400
Ni108      Ni  0.42929701  0.09820344  0.86911607     1.25400
C109        C  0.37183377  0.17000829  0.89010067     0.88100
C110        C  0.52548666  0.08862878  0.87325861     0.88000
C111        C  0.45678971  0.16701610  0.82328274     0.88000
C112        C  0.44065052  0.09464660  0.93911375     0.88200
O113        O  0.31066235  0.35357232  0.40255965    -0.74100
O114        O  0.36935576  0.47101679  0.39215900    -0.74100
O115        O  0.31298572  0.41787820  0.35369428    -0.74200
O116        O  0.36553082  0.40651748  0.44115076    -0.74200
O117        O  0.42742404  0.37270264  0.41911106    -0.74200
O118        O  0.37442051  0.38335875  0.33140684    -0.74100
O119        O  0.43017230  0.43617048  0.36931434    -0.74100
O120        O  0.37301031  0.31967053  0.38115245    -0.74200
Ni121      Ni  0.33744723  0.41364812  0.39810655     1.25400
Ni122      Ni  0.40347578  0.37694413  0.37443634     1.25400
C123        C  0.33254919  0.31719871  0.39381991     0.88100
C124        C  0.40984640  0.47263996  0.37915780     0.88000
C125        C  0.33434933  0.40160527  0.32828463     0.88000
C126        C  0.40458171  0.38655524  0.44470776     0.88200
O127        O  0.66067328  0.71825666  0.40479031    -0.74100
O128        O  0.54277030  0.65619598  0.39786108    -0.74100
O129        O  0.60806156  0.66624695  0.44612443    -0.74200
O130        O  0.59481464  0.71039256  0.35633519    -0.74200
O131        O  0.63051500  0.64822294  0.33706017    -0.74200
O132        O  0.64455842  0.60443611  0.42687634    -0.74100
O133        O  0.58047889  0.59510664  0.37852232    -0.74100
O134        O  0.69521582  0.65564755  0.38528285    -0.74200
Ni135      Ni  0.60012284  0.69011522  0.40190169     1.25400
Ni136      Ni  0.63876521  0.62373059  0.38126026     1.25400
C137        C  0.69761833  0.69626027  0.39679115     0.88100
C138        C  0.54286617  0.61490190  0.38684826     0.88000
C139        C  0.62967585  0.62868351  0.45133472     0.88000
C140        C  0.61077313  0.68696157  0.33187685     0.88200
O141        O  0.91159517  0.69491196  0.12715764    -0.74100
O142        O  0.03305242  0.64165795  0.13424863    -0.74100
O143        O  0.96460380  0.63987303  0.08862363    -0.74200
O144        O  0.98006016  0.69858238  0.17346518    -0.74200
O145        O  0.94899475  0.63786143  0.19849743    -0.74200
O146        O  0.93401924  0.57849937  0.11316616    -0.74100
O147        O  0.00153320  0.58157922  0.16007324    -0.74100
O148        O  0.88125351  0.63343853  0.15172706    -0.74200
Ni149      Ni  0.97346197  0.67098266  0.13006052     1.25400
Ni150      Ni  0.94052288  0.60572942  0.15686429     1.25400
C151        C  0.87631750  0.67246930  0.13764178     0.88100
C152        C  0.03678681  0.60200711  0.14789072     0.88000
C153        C  0.94662417  0.59997268  0.08662661     0.88000
C154        C  0.96640113  0.67823501  0.20012101     0.88200
O155        O  0.26596616  0.33906766  0.12659210    -0.74100
O156        O  0.21205202  0.45928696  0.13410205    -0.74100
O157        O  0.26445470  0.40504731  0.17420035    -0.74200
O158        O  0.21494204  0.39344404  0.08623721    -0.74200
O159        O  0.15115513  0.36303035  0.10777678    -0.74200
O160        O  0.20190966  0.37306080  0.19644831    -0.74100
O161        O  0.14962412  0.42751731  0.15702797    -0.74100
O162        O  0.20210777  0.30824377  0.14774112    -0.74200
Ni163      Ni  0.24162110  0.40037396  0.12957789     1.25400
Ni164      Ni  0.17387038  0.36698165  0.15298566     1.25400
C165        C  0.24260540  0.30371070  0.13548250     0.88100
C166        C  0.17184842  0.46291109  0.14729664     0.88000
C167        C  0.24196375  0.39098224  0.19984898     0.88000
C168        C  0.17530918  0.37526755  0.08225916     0.88200
O169        O  0.30447354  0.08865627  0.12201873    -0.74100
O170        O  0.35784523  0.96777203  0.12791240    -0.74100
O171        O  0.30644265  0.02258446  0.16963658    -0.74200
O172        O  0.35508063  0.03446028  0.08081068    -0.74200
O173        O  0.41936590  0.06495597  0.10132969    -0.74200
O174        O  0.37062386  0.05318704  0.19033534    -0.74100
O175        O  0.42133260  0.99925559  0.14913535    -0.74100
O176        O  0.36903125  0.11899691  0.14222385    -0.74200
Ni177      Ni  0.32863933  0.02719177  0.12439090     1.25400
Ni178      Ni  0.39737624  0.06000153  0.14649576     1.25400
C179        C  0.32796731  0.12371768  0.13102683     0.88100
C180        C  0.39893652  0.96400562  0.13944778     0.88000
C181        C  0.32999132  0.03696663  0.19461236     0.88000
C182        C  0.39501593  0.05210732  0.07635219     0.88200
O183        O  0.65861115  0.73029137  0.12254909    -0.74100
O184        O  0.53735505  0.78458967  0.13110427    -0.74100
O185        O  0.60256663  0.78027496  0.08229501    -0.74200
O186        O  0.59322248  0.73200617  0.17103296    -0.74200
O187        O  0.62593736  0.79514836  0.19101169    -0.74200
O188        O  0.63374510  0.84407997  0.10223603    -0.74100
O189        O  0.57061335  0.84688529  0.15206018    -0.74100
O190        O  0.68977565  0.79455747  0.14182902    -0.74200
Ni191      Ni  0.59666150  0.75446238  0.12603082     1.25400
Ni192      Ni  0.63098498  0.82239092  0.14748172     1.25400
C193        C  0.69421675  0.75391570  0.13075291     0.88100
C194        C  0.53450076  0.82517593  0.14324173     0.88000
C195        C  0.62056793  0.81961178  0.07744080     0.88000
C196        C  0.60861758  0.75524691  0.19563193     0.88200
O197        O  0.92044034  0.74462185  0.40748096    -0.74100
O198        O  0.04172530  0.79794361  0.39476461    -0.74100
O199        O  0.97772574  0.79837526  0.44456402    -0.74200
O200        O  0.98511539  0.74221429  0.35787777    -0.74200
O201        O  0.95233510  0.80367355  0.33477548    -0.74200
O202        O  0.94552219  0.86021871  0.42152597    -0.74100
O203        O  0.00806709  0.85852959  0.37095933    -0.74100
O204        O  0.88895741  0.80707178  0.38490865    -0.74200
Ni205      Ni  0.98251683  0.76850568  0.40194853     1.25400
Ni206      Ni  0.94771773  0.83447873  0.37723565     1.25400
C207        C  0.88454106  0.76755105  0.39837201     0.88100
C208        C  0.04437905  0.83758998  0.38080533     0.88000
C209        C  0.95972678  0.83823220  0.44748405     0.88000
C210        C  0.96961408  0.76329628  0.33203231     0.88200
O211        O  0.27095833  0.10266705  0.39942969    -0.74100
O212        O  0.21904866  0.98161174  0.39375662    -0.74100
O213        O  0.26938338  0.03628951  0.35187391    -0.74200
O214        O  0.22133107  0.04778781  0.44045872    -0.74200
O215        O  0.15628849  0.07762295  0.42030131    -0.74200
O216        O  0.20543088  0.06744435  0.33100056    -0.74100
O217        O  0.15528294  0.01272194  0.37216617    -0.74100
O218        O  0.20607489  0.13295415  0.37943937    -0.74200
Ni219      Ni  0.24753084  0.04107236  0.39701927     1.25400
Ni220      Ni  0.17847778  0.07371504  0.37495344     1.25400
C221        C  0.24691827  0.13790787  0.39096574     0.88100
C222        C  0.17807749  0.97758049  0.38215417     0.88000
C223        C  0.24565656  0.04993628  0.32665172     0.88000
C224        C  0.18090899  0.06435488  0.44517821     0.88200
C225        C  0.13097022  0.92361768  0.35013905    -0.11900
C226        C  0.15537304  0.93248499  0.37956171     0.05100
C227        C  0.15043607  0.90224215  0.40703164    -0.07200
C228        C  0.11713484  0.86727405  0.40578098    -0.08000
C229        C  0.08883487  0.86211819  0.37752927    -0.02500
C230        C  0.09806309  0.88892912  0.34882704     0.04300
N231        N  0.07246556  0.88320951  0.31862498     0.66800
H232        H  0.13530368  0.94585396  0.32852018     0.15700
H233        H  0.11054558  0.84695679  0.42806955     0.15400
N234        N  0.17519324  0.90935632  0.43744109     0.74500
O235        O  0.03955324  0.91026829  0.31231182    -0.38900
O236        O  0.09040606  0.86080862  0.29499571    -0.38900
O237        O  0.15585391  0.93038036  0.46117712    -0.39600
O238        O  0.21066422  0.88551587  0.44335267    -0.39700
C239        C  0.31303887  0.03412578  0.28928108    -0.11900
C240        C  0.26595672  0.04544372  0.29238450     0.05100
C241        C  0.24009092  0.05218311  0.26271325    -0.07200
C242        C  0.26144638  0.04759975  0.23135132    -0.08000
C243        C  0.30863755  0.03733634  0.22844685    -0.02500
C244        C  0.33448114  0.03040382  0.25793128     0.04300
N245        N  0.38227358  0.01844429  0.25661289     0.66800
H246        H  0.33396245  0.02855708  0.31150938     0.15700
H247        H  0.24098477  0.05352823  0.20892561     0.15400
N248        N  0.19227894  0.06407149  0.26369729     0.74500
O249        O  0.41215655  0.04936256  0.26007354    -0.38900
O250        O  0.39400052  0.97712570  0.26050294    -0.38900
O251        O  0.18040360  0.10508600  0.25849028    -0.39600
O252        O  0.16246201  0.03287218  0.26147084    -0.39700
C253        C  0.46103583  0.85321751  0.11796420    -0.11900
C254        C  0.48994621  0.84962451  0.14604922     0.05100
C255        C  0.48118843  0.87782114  0.17394656    -0.07200
C256        C  0.44737313  0.91172723  0.17212550    -0.08000
C257        C  0.42227094  0.91915784  0.14272322    -0.02500
C258        C  0.42737294  0.88802823  0.11595290     0.04300
N259        N  0.40269594  0.89418406  0.08533328     0.66800
H260        H  0.46758860  0.83205913  0.09626872     0.15700
H261        H  0.44317366  0.93478191  0.19310803     0.15400
N262        N  0.50882781  0.87500823  0.20347113     0.74500
O263        O  0.42022402  0.91831578  0.06238266    -0.38900
O264        O  0.37056921  0.86687225  0.07823243    -0.38900
O265        O  0.53954944  0.90476075  0.20829504    -0.39600
O266        O  0.49458537  0.85153657  0.22792467    -0.39700
C267        C  0.25852010  0.17380703  0.13292282    -0.11900
C268        C  0.30656938  0.16996654  0.12970726     0.05100
C269        C  0.33277214  0.21049608  0.12627006    -0.07200
C270        C  0.31096489  0.25326548  0.12746223    -0.08000
C271        C  0.26319716  0.25722721  0.13214100    -0.02500
C272        C  0.23669938  0.21663607  0.13416320     0.04300
N273        N  0.18759909  0.21791916  0.13713023     0.66800
H274        H  0.23752584  0.14320089  0.13519104     0.15700
H275        H  0.33207882  0.28378206  0.12518453     0.15400
N276        N  0.38121541  0.20934301  0.11991321     0.74500
O277        O  0.16329439  0.21503456  0.11106006    -0.38900
O278        O  0.16928448  0.21022749  0.16524575    -0.38900
O279        O  0.39541868  0.22282086  0.09171488    -0.39600
O280        O  0.40867464  0.20983692  0.14437222    -0.39700
C281        C  0.82487229  0.73976296  0.12961923    -0.11900
C282        C  0.82941604  0.69230672  0.13380220     0.05100
C283        C  0.78895243  0.66523028  0.13437106    -0.07200
C284        C  0.74556838  0.68599101  0.13177498    -0.08000
C285        C  0.74101125  0.73353362  0.12908228    -0.02500
C286        C  0.78144242  0.76056151  0.12740777     0.04300
N287        N  0.77936106  0.80912118  0.12324975     0.66800
H288        H  0.85535148  0.76131162  0.12873807     0.15700
H289        H  0.71502672  0.66454055  0.13296319     0.15400
N290        N  0.79079610  0.61651693  0.13669847     0.74500
O291        O  0.78417526  0.83437145  0.14853631    -0.38900
O292        O  0.78544259  0.82602024  0.09448074    -0.38900
O293        O  0.78643678  0.59785007  0.16504312    -0.39600
O294        O  0.78163081  0.59351170  0.11095171    -0.39700
C295        C  0.96928956  0.67379380  0.26236759    -0.11900
C296        C  0.97032030  0.70109311  0.23342729     0.05100
C297        C  0.97322416  0.74921993  0.23737943    -0.07200
C298        C  0.97339361  0.76847214  0.26957439    -0.08000
C299        C  0.97154011  0.74102445  0.29847636    -0.02500
C300        C  0.97022914  0.69295417  0.29445281     0.04300
N301        N  0.96651108  0.66280894  0.32245617     0.66800
H302        H  0.96723337  0.63674107  0.26020969     0.15700
H303        H  0.97485914  0.80553421  0.27191173     0.15400
N304        N  0.97443909  0.77939413  0.20920737     0.74500
O305        O  0.92797983  0.64461153  0.32837755    -0.38900
O306        O  0.00253929  0.64391852  0.33368779    -0.38900
O307        O  0.93784766  0.79957928  0.20036395    -0.39600
O308        O  0.01278292  0.79501303  0.19957598    -0.39700
C309        C  0.09205278  0.55432564  0.17923443    -0.11900
C310        C  0.08140653  0.57753884  0.14947693     0.05100
C311        C  0.10853754  0.56924536  0.12070448    -0.07200
C312        C  0.14217171  0.53448508  0.12136678    -0.08000
C313        C  0.14886075  0.50782715  0.15021941    -0.02500
C314        C  0.12554537  0.51986888  0.17988211     0.04300
N315        N  0.13409698  0.49607460  0.21055953     0.66800
H316        H  0.07215704  0.56104383  0.20174783     0.15700
H317        H  0.15993426  0.52550603  0.09836090     0.15400
N318        N  0.09881731  0.59166808  0.08967878     0.74500
O319        O  0.16393816  0.51154713  0.23045236    -0.38900
O320        O  0.10486451  0.46758505  0.22118094    -0.38900
O321        O  0.12577657  0.62246230  0.07933068    -0.39600
O322        O  0.07144793  0.57315465  0.06932291    -0.39700
C323        C  0.78231374  0.68581993  0.40241079    -0.11900
C324        C  0.74454355  0.71608886  0.40093303     0.05100
C325        C  0.75318908  0.76344146  0.40245487    -0.07200
C326        C  0.79893284  0.77942212  0.40254091    -0.08000
C327        C  0.83689104  0.74892378  0.40245522    -0.02500
C328        C  0.82780481  0.70153501  0.40376527     0.04300
N329        N  0.86405480  0.66843097  0.40529098     0.66800
H330        H  0.77666682  0.64911850  0.40246967     0.15700
H331        H  0.80473919  0.81608163  0.40238162     0.15400
N332        N  0.71611186  0.79570689  0.40324126     0.74500
O333        O  0.87871103  0.65586104  0.43358705    -0.38900
O334        O  0.87036486  0.64252097  0.38055925    -0.38900
O335        O  0.69790652  0.80629372  0.43085164    -0.39600
O336        O  0.69746068  0.80858107  0.37631308    -0.39700
C337        C  0.60846296  0.67369680  0.27035169    -0.11900
C338        C  0.60689593  0.70471377  0.29711935     0.05100
C339        C  0.60361797  0.75203382  0.28988184    -0.07200
C340        C  0.60366494  0.76724537  0.25670838    -0.08000
C341        C  0.60629601  0.73643314  0.23003000    -0.02500
C342        C  0.60786364  0.68898031  0.23706153     0.04300
N343        N  0.61090687  0.65583984  0.21093999     0.66800
H344        H  0.61065611  0.63726200  0.27522752     0.15700
H345        H  0.60189735  0.80372482  0.25185808     0.15400
N346        N  0.60269278  0.78561502  0.31570072     0.74500
O347        O  0.65010008  0.64187284  0.20162587    -0.38900
O348        O  0.57558850  0.63298689  0.20337875    -0.38900
O349        O  0.63858491  0.80871685  0.32104801    -0.39600
O350        O  0.56424866  0.80106062  0.32538707    -0.39700
C351        C  0.26290943  0.26811586  0.39045732    -0.11900
C352        C  0.31020485  0.27182020  0.39694198     0.05100
C353        C  0.33566687  0.23160822  0.40398074    -0.07200
C354        C  0.31410014  0.18880886  0.40258347    -0.08000
C355        C  0.26717818  0.18464595  0.39427911    -0.02500
C356        C  0.24124080  0.22533666  0.38900189     0.04300
N357        N  0.19301014  0.22422772  0.38185885     0.66800
H358        H  0.24261554  0.29882610  0.38526057     0.15700
H359        H  0.33481917  0.15836630  0.40764038     0.15400
N360        N  0.38316463  0.23357283  0.41338807     0.74500
O361        O  0.16453488  0.23005879  0.40538362    -0.38900
O362        O  0.17966952  0.22928723  0.35202822    -0.38900
O363        O  0.39360019  0.23272565  0.44403082    -0.39600
O364        O  0.41381454  0.22462099  0.39191692    -0.39700
C365        C  0.31111527  0.40618553  0.23472568    -0.11900
C366        C  0.26393730  0.39523002  0.23335296     0.05100
C367        C  0.23991939  0.38857314  0.26381885    -0.07200
C368        C  0.26343002  0.39218999  0.29433648    -0.08000
C369        C  0.31086858  0.40162550  0.29542193    -0.02500
C370        C  0.33462682  0.40909798  0.26514693     0.04300
N371        N  0.38206499  0.42194453  0.26467317     0.66800
H372        H  0.33052385  0.41210700  0.21187096     0.15700
H373        H  0.24453203  0.38631888  0.31744053     0.15400
N374        N  0.19187237  0.37799151  0.26449469     0.74500
O375        O  0.41241202  0.39133429  0.26087462    -0.38900
O376        O  0.39203471  0.46287635  0.25772395    -0.38900
O377        O  0.17958635  0.33704979  0.26908685    -0.39600
O378        O  0.16305324  0.40976725  0.26927828    -0.39700
C379        C  0.49777812  0.56119881  0.35339595    -0.11900
C380        C  0.50017735  0.58810133  0.38226187     0.05100
C381        C  0.46691980  0.58164806  0.40763523    -0.07200
C382        C  0.43443585  0.54621002  0.40473019    -0.08000
C383        C  0.43539247  0.51635379  0.37726635    -0.02500
C384        C  0.46641860  0.52533232  0.35084668     0.04300
N385        N  0.46747493  0.49785253  0.32141284     0.66800
H386        H  0.52262102  0.56613332  0.33340335     0.15700
H387        H  0.41120444  0.53952584  0.42542990     0.15400
N388        N  0.46939057  0.60623082  0.43830440     0.74500
O389        O  0.45055337  0.51420048  0.29487900    -0.38900
O390        O  0.49672649  0.46588165  0.31935475    -0.38900
O391        O  0.44163602  0.63885857  0.44330703    -0.39600
O392        O  0.48907776  0.58757496  0.46297472    -0.39700
C393        C  0.45477935  0.10200584  0.99996657    -0.11900
C394        C  0.43387797  0.07751169  0.97387170     0.05100
C395        C  0.40439315  0.04077020  0.98222112    -0.07200
C396        C  0.39361656  0.03193481  0.01585553    -0.08000
C397        C  0.41227422  0.05859203  0.04171458    -0.02500
C398        C  0.44447269  0.09292258  0.03343817     0.04300
N399        N  0.46465188  0.12149640  0.05832362     0.66800
H400        H  0.47811836  0.12961099  0.99456523     0.15700
H401        H  0.36989311  0.00479906  0.02163505     0.15400
N402        N  0.38415189  0.01260281  0.95711479     0.74500
O403        O  0.50336192  0.11058056  0.07039400    -0.38900
O404        O  0.45103544  0.16235831  0.06071366    -0.38900
O405        O  0.40210956  0.97416848  0.95088078    -0.39600
O406        O  0.34332530  0.02054444  0.94781103    -0.39700
C407        C  0.62729454  0.82647449  0.98235665    -0.11900
C408        C  0.65880663  0.86237226  0.97811396     0.05100
C409        C  0.67356797  0.88681784  0.00659002    -0.07200
C410        C  0.65826512  0.87380709  0.03832763    -0.08000
C411        C  0.62908492  0.83606872  0.04284351    -0.02500
C412        C  0.61268189  0.81284432  0.01421096     0.04300
N413        N  0.58242819  0.77447806  0.01678059     0.66800
H414        H  0.61538555  0.80721770  0.96086720     0.15700
H415        H  0.67128415  0.89242772  0.05977302     0.15400
N416        N  0.70499999  0.92424985  0.00412108     0.74500
O417        O  0.53963546  0.78058795  0.01298417    -0.38900
O418        O  0.59886901  0.73461396  0.01397772    -0.38900
O419        O  0.74733180  0.91710431  0.00940911    -0.39600
O420        O  0.68955328  0.96452945  0.00633421    -0.39700
C421        C  0.59828887  0.06176326  0.89925945    -0.11900
C422        C  0.56886358  0.06224571  0.87139942     0.05100
C423        C  0.57805925  0.03246666  0.84454056    -0.07200
C424        C  0.61452760  0.00133325  0.84674356    -0.08000
C425        C  0.64136768  0.99787026  0.87581478    -0.04100
C426        C  0.63386219  0.02927896  0.90200027     0.04300
N427        N  0.65684440  0.02432402  0.93335582     0.66800
H428        H  0.59100639  0.08378805  0.92037253     0.15700
H429        H  0.61992826  0.97752913  0.82637071     0.15400
N430        N  0.54950840  0.03183928  0.81543668     0.74500
O431        O  0.69074772  0.04973340  0.93984409    -0.38900
O432        O  0.63593338  0.00467463  0.95706556    -0.38900
O433        O  0.56401276  0.05026816  0.78885309    -0.39600
O434        O  0.51693940  0.00337493  0.81385087    -0.39700
C435        C  0.62771534  0.61361517  0.54602805    -0.11900
C436        C  0.66928645  0.58982652  0.55124334     0.05100
C437        C  0.69698520  0.57883716  0.52310903    -0.07200
C438        C  0.68184978  0.59002272  0.49100480    -0.08000
C439        C  0.64071839  0.61429820  0.48587012    -0.02500
C440        C  0.61380529  0.62684453  0.51388425     0.04300
N441        N  0.57260456  0.65337970  0.51044193     0.66800
H442        H  0.60623907  0.62325050  0.56711492     0.15700
H443        H  0.70394525  0.58162235  0.46994586     0.15400
N444        N  0.74191286  0.55901410  0.52644945     0.74500
O445        O  0.53414276  0.63365025  0.51303606    -0.38900
O446        O  0.57455884  0.69607710  0.51482392    -0.38900
O447        O  0.74788246  0.51741941  0.51920654    -0.39600
O448        O  0.77648066  0.58505296  0.52820254    -0.39700
C449        C  0.42135388  0.38510628  0.53931808    -0.11900
C450        C  0.44932213  0.34609911  0.54352976     0.05100
C451        C  0.46496556  0.32290664  0.51454492    -0.07200
C452        C  0.45178458  0.33844921  0.48280002    -0.08000
C453        C  0.42221937  0.37617851  0.47875883    -0.02500
C454        C  0.40735382  0.39997205  0.50757050     0.04300
N455        N  0.37771391  0.43903445  0.50534875     0.66800
H456        H  0.40874930  0.40371843  0.56096635     0.15700
H457        H  0.46324407  0.31921581  0.46109653     0.15400
N458        N  0.49262032  0.28241909  0.51653130     0.74500
O459        O  0.33487969  0.43382441  0.50951509    -0.38900
O460        O  0.39482878  0.47840212  0.50869671    -0.38900
O461        O  0.47365074  0.24399815  0.51258177    -0.39600
O462        O  0.53572160  0.28564316  0.51280251    -0.39700
C463        C  0.47190667  0.23726141  0.78957688    -0.11900
C464        C  0.46115206  0.19031931  0.79022213     0.05100
C465        C  0.45499106  0.16754673  0.75943678    -0.07200
C466        C  0.45959550  0.19174095  0.72926989    -0.08000
C467        C  0.46925017  0.23878542  0.72879964    -0.02500
C468        C  0.47545973  0.26161460  0.75943874     0.04300
N469        N  0.48748975  0.30890618  0.76060550     0.66800
H470        H  0.47704494  0.25574964  0.81279469     0.15700
H471        H  0.45441524  0.17363617  0.70587355     0.15400
N472        N  0.44407490  0.11998883  0.75811107     0.74500
O473        O  0.45577761  0.33841973  0.76291517    -0.38900
O474        O  0.52772805  0.31946979  0.76963592    -0.38900
O475        O  0.40303064  0.10816440  0.75233422    -0.39600
O476        O  0.47618163  0.09120530  0.75429073    -0.39700
C477        C  0.61029989  0.37679130  0.62050645    -0.11900
C478        C  0.58213377  0.37012136  0.64871000     0.05100
C479        C  0.58932560  0.39746941  0.67719839    -0.07200
C480        C  0.62137846  0.43290411  0.67619546    -0.08000
C481        C  0.64672896  0.44221505  0.64717712    -0.02500
C482        C  0.64243402  0.41275272  0.61943928     0.04300
N483        N  0.66659677  0.42163449  0.58896061     0.66800
H484        H  0.60480321  0.35635357  0.59820913     0.15700
H485        H  0.62508639  0.45469889  0.69802102     0.15400
N486        N  0.56447491  0.38976180  0.70751662     0.74500
O487        O  0.70232998  0.39865023  0.58223637    -0.38900
O488        O  0.64651880  0.44345788  0.56584845    -0.38900
O489        O  0.58541496  0.37103408  0.73161178    -0.39600
O490        O  0.52876474  0.41323232  0.71341296    -0.39700
C491        C  0.77766804  0.68162553  0.91575497    -0.11900
C492        C  0.81762536  0.67238514  0.89684074     0.05100
C493        C  0.83798079  0.70864921  0.87830955    -0.07200
C494        C  0.81906126  0.75270737  0.87961999    -0.08000
C495        C  0.77920430  0.76138987  0.89815577    -0.02500
C496        C  0.75827406  0.72565390  0.91628887     0.04300
N497        N  0.71717104  0.73383163  0.93523428     0.66800
H498        H  0.76126493  0.65467770  0.93001190     0.15700
H499        H  0.83410631  0.77967251  0.86457754     0.15400
N500        N  0.87569463  0.70091279  0.85595747     0.74500
O501        O  0.67849754  0.72312851  0.92317275    -0.38900
O502        O  0.71884114  0.75841869  0.96108478    -0.38900
O503        O  0.86749189  0.69254055  0.82559541    -0.39600
O504        O  0.91575166  0.71290658  0.86446170    -0.39700
C505        C  0.89555792  0.53700175  0.01191294    -0.11900
C506        C  0.91989012  0.55722990  0.98520845     0.05100
C507        C  0.95701236  0.58660875  0.99285070    -0.07200
C508        C  0.96647048  0.59771758  0.02618242    -0.08000
C509        C  0.94000987  0.58006950  0.05272883    -0.02500
C510        C  0.90537682  0.54775479  0.04532708     0.04300
N511        N  0.87758250  0.52771164  0.07096981     0.66800
H512        H  0.86751402  0.51362880  0.00691180     0.15700
H513        H  0.99394203  0.62177664  0.03115745     0.15400
N514        N  0.98403369  0.60770276  0.96722832     0.74500
O515        O  0.89040348  0.49044865  0.08409728    -0.38900
O516        O  0.83572894  0.53922435  0.07304614    -0.38900
O517        O  0.97496024  0.64831113  0.95853206    -0.39600
O518        O  0.02288397  0.59080050  0.95999016    -0.39700
C519        C  0.81211197  0.54434037  0.73943507    -0.11900
C520        C  0.76367344  0.54606209  0.73794546     0.05100
C521        C  0.73844100  0.54410850  0.76814120    -0.07200
C522        C  0.76191242  0.54056571  0.79870213    -0.08000
C523        C  0.81044156  0.53985272  0.80014201    -0.02500
C524        C  0.83554390  0.54164282  0.76989810     0.04300
N525        N  0.88480378  0.54035760  0.76936547     0.66800
H526        H  0.83244501  0.54604149  0.71660849     0.15700
H527        H  0.74173926  0.53946681  0.82161482     0.15400
N528        N  0.68917841  0.54517374  0.76844641     0.74500
O529        O  0.90492798  0.50303500  0.76303528    -0.38900
O530        O  0.90676027  0.57731085  0.76598888    -0.38900
O531        O  0.66737000  0.50814387  0.77191046    -0.39600
O532        O  0.66879548  0.58250803  0.77438846    -0.39700
C533        C  0.24428931  0.18928384  0.90569030    -0.11900
C534        C  0.23914300  0.23554259  0.89678729     0.05100
C535        C  0.27937344  0.26121178  0.88914103    -0.07200
C536        C  0.32256649  0.23956648  0.88854030    -0.08000
C537        C  0.32686870  0.19272496  0.89531555    -0.02500
C538        C  0.28745403  0.16787926  0.90514667     0.04300
N539        N  0.29077873  0.12125604  0.91577126     0.66800
H540        H  0.21441290  0.16899748  0.91268751     0.15700
H541        H  0.35280560  0.25931588  0.88148433     0.15400
N542        N  0.27737033  0.30900339  0.88151284     0.74500
O543        O  0.27968051  0.08990595  0.89574881    -0.38900
O544        O  0.29275731  0.11247795  0.94667712    -0.38900
O545        O  0.28779146  0.33746976  0.90390628    -0.39600
O546        O  0.27755911  0.32167346  0.85129221    -0.39700
C547        C  0.16527560  0.36842612  0.98706584    -0.11900
C548        C  0.12901280  0.33714923  0.98338145     0.05100
C549        C  0.10604132  0.32148288  0.01244953    -0.07200
C550        C  0.12041348  0.33624453  0.04404352    -0.08000
C551        C  0.15812722  0.36579404  0.04786817    -0.02500
C552        C  0.18034784  0.38243847  0.01864538     0.04300
N553        N  0.21901809  0.41254099  0.02024484     0.66800
H554        H  0.18379748  0.38090785  0.96507492     0.15700
H555        H  0.10250140  0.32288038  0.06601692     0.15400
N556        N  0.06794988  0.29078608  0.01065815     0.74500
O557        O  0.25917599  0.39596682  0.01800460    -0.38900
O558        O  0.21299852  0.45462987  0.01443811    -0.38900
O559        O  0.07496973  0.24865038  0.01559189    -0.39600
O560        O  0.02780197  0.30655121  0.01481522    -0.39700
C561        C  0.97723717  0.36925940  0.85293279    -0.11900
C562        C  0.98369963  0.34338912  0.88211543     0.05100
C563        C  0.95297513  0.34971958  0.90915304    -0.07200
C564        C  0.92171384  0.38663623  0.90848207    -0.08000
C565        C  0.92075318  0.41686996  0.88114130    -0.02500
C566        C  0.94637421  0.40589960  0.85224845     0.04300
N567        N  0.94346822  0.43313383  0.82258241     0.66800
H568        H  0.99958761  0.36376803  0.83141530     0.15700
H569        H  0.90139008  0.39414545  0.93068957     0.15400
N570        N  0.95680728  0.32297373  0.93892969     0.74500
O571        O  0.97305619  0.46400938  0.81757119    -0.38900
O572        O  0.92060440  0.41817379  0.79814434    -0.38900
O573        O  0.97413187  0.34096156  0.96460063    -0.39600
O574        O  0.93192857  0.28787775  0.94220623    -0.39700
C575        C  0.26338109  0.23492752  0.61509680    -0.11900
C576        C  0.25759243  0.19107760  0.62893710     0.05100
C577        C  0.29763179  0.16546719  0.63763718    -0.07200
C578        C  0.34134598  0.18567772  0.63516897    -0.08000
C579        C  0.34623027  0.23073760  0.62375906    -0.02500
C580        C  0.30701831  0.25459375  0.61214546     0.04300
N581        N  0.31103040  0.29849145  0.59653684     0.66800
H582        H  0.23372206  0.25467403  0.60671244     0.15700
H583        H  0.37144446  0.16665872  0.64367284     0.15400
N584        N  0.29492893  0.11924080  0.64926827     0.74500
O585        O  0.31674181  0.30066763  0.56526412    -0.38900
O586        O  0.29749717  0.33362131  0.61201621    -0.38900
O587        O  0.30434906  0.08718091  0.62930700    -0.39600
O588        O  0.29555720  0.11135181  0.68032206    -0.39700
C589        C  0.11475395  0.10428052  0.52213760    -0.11900
C590        C  0.14374340  0.08855897  0.54785740     0.05100
C591        C  0.18096488  0.05946763  0.53971637    -0.07200
C592        C  0.19077598  0.05019248  0.50615735    -0.08000
C593        C  0.16402062  0.06906288  0.48013223    -0.02500
C594        C  0.12415770  0.09452825  0.48859357     0.04300
N595        N  0.09356155  0.11213902  0.46366643     0.66800
H596        H  0.08513203  0.12562346  0.52801290     0.15700
H597        H  0.22091880  0.02948403  0.50053226     0.15400
N598        N  0.21147913  0.04205977  0.56478027     0.74500
O599        O  0.05811566  0.08946504  0.45613372    -0.38900
O600        O  0.09545864  0.15399065  0.45588065    -0.38900
O601        O  0.20842453  0.00063037  0.57352882    -0.39600
O602        O  0.24778249  0.06388744  0.57141887    -0.39700
C603        C  0.10338998  0.17087437  0.75764844    -0.11900
C604        C  0.11064813  0.20064746  0.73050112     0.05100
C605        C  0.11085875  0.24829933  0.73661906    -0.07200
C606        C  0.10732902  0.26457564  0.76950090    -0.08000
C607        C  0.10201329  0.23465667  0.79690273    -0.02500
C608        C  0.09821202  0.18722735  0.79037973     0.04300
N609        N  0.08944445  0.15487752  0.81646595     0.66800
H610        H  0.10140698  0.13414936  0.75345968     0.15700
H611        H  0.10916382  0.30132632  0.77355006     0.15400
N612        N  0.11581481  0.28079926  0.71006948     0.74500
O613        O  0.12276354  0.13278068  0.82892750    -0.38900
O614        O  0.04897507  0.13990535  0.82028225    -0.38900
O615        O  0.08036728  0.30108031  0.69912198    -0.39600
O616        O  0.15502532  0.29772209  0.70426386    -0.39700
C617        C  0.76764361  0.77156521  0.63961494    -0.11900
C618        C  0.81542566  0.77415404  0.63480831     0.05100
C619        C  0.84127724  0.73311566  0.63299156    -0.07200
C620        C  0.81906516  0.69087166  0.63615943    -0.08000
C621        C  0.77125373  0.68816777  0.64144316    -0.02500
C622        C  0.74543894  0.72942018  0.64317442     0.04300
N623        N  0.69663521  0.72962731  0.64824456     0.66800
H624        H  0.74724503  0.80267227  0.64154543     0.15700
H625        H  0.83968196  0.65988874  0.63449983     0.15400
N626        N  0.88990240  0.73342134  0.62707802     0.74500
O627        O  0.68104186  0.73473502  0.67749147    -0.38900
O628        O  0.67051045  0.73751681  0.62364482    -0.38900
O629        O  0.91696829  0.72351999  0.65074929    -0.39600
O630        O  0.90454660  0.73167857  0.59736627    -0.39700
C631        C  0.96364548  0.85876636  0.54179332    -0.11900
C632        C  0.92314699  0.88456705  0.54657712     0.05100
C633        C  0.89844745  0.89930173  0.51783601    -0.07200
C634        C  0.91308630  0.88611694  0.48591337    -0.08000
C635        C  0.95161423  0.85772769  0.48134190    -0.02500
C636        C  0.97797766  0.84521099  0.50973842     0.04300
N637        N  0.01956710  0.81920899  0.50662707     0.66800
H638        H  0.98395241  0.84759974  0.56330684     0.15700
H639        H  0.89220135  0.89636059  0.46443306     0.15400
N640        N  0.85720786  0.92597242  0.52034012     0.74500
O641        O  0.05752901  0.84008705  0.50469568    -0.38900
O642        O  0.01951331  0.77746674  0.51488012    -0.38900
O643        O  0.85890360  0.96837569  0.51435096    -0.39600
O644        O  0.81867327  0.90600350  0.51975593    -0.39700
C645        C  0.84141823  0.90170400  0.76037423    -0.11900
C646        C  0.81355738  0.90294970  0.73173025     0.05100
C647        C  0.76503170  0.90110098  0.73568346    -0.07200
C648        C  0.74576159  0.89735435  0.76770022    -0.08000
C649        C  0.77366427  0.89585329  0.79629563    -0.02500
C650        C  0.82209311  0.89830932  0.79239855     0.04300
N651        N  0.85242338  0.89488706  0.82043684     0.66800
H652        H  0.87868791  0.90285476  0.75794705     0.15700
H653        H  0.70852096  0.89556887  0.77014855     0.15400
N654        N  0.73468401  0.90104151  0.70754348     0.74500
O655        O  0.86894182  0.85629850  0.82827668    -0.38900
O656        O  0.87130804  0.93061680  0.83146246    -0.38900
O657        O  0.71944507  0.86342762  0.69687477    -0.39600
O658        O  0.71458246  0.93772060  0.69919587    -0.39700
C659        C  0.93659910  0.04953897  0.62064285    -0.11900
C660        C  0.93122918  0.02280828  0.64964234     0.05100
C661        C  0.95701221  0.03378104  0.67840051    -0.07200
C662        C  0.99092776  0.06741690  0.67659337    -0.08000
C663        C  0.00061107  0.08987615  0.64640112    -0.02500
C664        C  0.97148847  0.08273649  0.61862679     0.04300
N665        N  0.98061471  0.10404840  0.58709294     0.66800
H666        H  0.91714273  0.04122061  0.59826522     0.15700
H667        H  0.01262860  0.07322751  0.69832847     0.15400
N668        N  0.95173298  0.00871941  0.70893445     0.74500
O669        O  0.00684448  0.08419698  0.56647569    -0.38900
O670        O  0.95411982  0.13545993  0.57685730    -0.38900
O671        O  0.98101937  0.97827583  0.71635620    -0.39600
O672        O  0.92652572  0.02509524  0.73172657    -0.39700
loop_ 
_geom_bond_atom_site_label_1 
_geom_bond_atom_site_label_2 
_geom_bond_distance 
_geom_bond_site_symmetry_2 
_ccdc_geom_bond_type 
O1           Ni9   1.925       .  S
O1           C11   1.285       .  A
O2           Ni9   1.932       .  S
O2           C12   1.283       .  A
O3           Ni9   1.911       .  S
O3           C13   1.279       .  A
O4           Ni9   1.911       .  S
O4           C14   1.279       .  A
O5          Ni10   1.924       .  S
O5           C14   1.285       .  A
O6          Ni10   1.931       .  S
O6           C13   1.286       .  A
O7          Ni10   1.905       .  S
O7           C12   1.278       .  A
O8          Ni10   1.905       .  S
O8           C11   1.277       .  A
Ni9         Ni10   2.385       .  S
C11         C618   1.480       .  S
C12         C660   1.475   1_565  S
C13         C632   1.494       .  S
C14         C646   1.483       .  S
O15         Ni23   1.925       .  S
O15          C25   1.286       .  A
O16         Ni23   1.931       .  S
O16          C26   1.282       .  A
O17         Ni23   1.923       .  S
O17          C27   1.281       .  A
O18         Ni23   1.905       .  S
O18          C28   1.280       .  A
O19         Ni24   1.924       .  S
O19          C28   1.282       .  A
O20         Ni24   1.925       .  S
O20          C27   1.285       .  A
O21         Ni24   1.902       .  S
O21          C26   1.280       .  A
O22         Ni24   1.909       .  S
O22          C25   1.277       .  A
Ni23        Ni24   2.386       .  S
C25         C576   1.489       .  S
C26         C663   1.473       .  S
C27         C604   1.490       .  S
C28         C590   1.478       .  S
O29         Ni37   1.928       .  S
O29          C39   1.287       .  A
O30         Ni37   1.936       .  S
O30          C40   1.283       .  A
O31         Ni37   1.932       .  S
O31          C41   1.283       .  A
O32         Ni37   1.924       .  S
O32          C42   1.281       .  A
O33         Ni38   1.917       .  S
O33          C42   1.283       .  A
O34         Ni38   1.918       .  S
O34          C41   1.283       .  A
O35         Ni38   1.899       .  S
O35          C40   1.280       .  A
O36         Ni38   1.906       .  S
O36          C39   1.277       .  A
Ni37        Ni38   2.384       .  S
C39         C534   1.488       .  S
C40         C562   1.476   1_455  S
C41         C607   1.495       .  S
C42         C548   1.487       .  S
O43         Ni51   1.930       .  S
O43          C53   1.285       .  A
O44         Ni51   1.930       .  S
O44          C54   1.283       .  A
O45         Ni51   1.912       .  S
O45          C55   1.281       .  A
O46         Ni51   1.910       .  S
O46          C56   1.281       .  A
O47         Ni52   1.924       .  S
O47          C56   1.283       .  A
O48         Ni52   1.932       .  S
O48          C55   1.284       .  A
O49         Ni52   1.906       .  S
O49          C54   1.279       .  A
O50         Ni52   1.907       .  S
O50          C53   1.279       .  A
Ni51        Ni52   2.384       .  S
C53         C492   1.489       .  S
C54         C565   1.475       .  S
C55         C506   1.493       .  S
C56         C523   1.485       .  S
O57         Ni65   1.930       .  S
O57          C67   1.284       .  A
O58         Ni65   1.936       .  S
O58          C68   1.285       .  A
O59         Ni65   1.917       .  S
O59          C69   1.282       .  A
O60         Ni65   1.915       .  S
O60          C70   1.279       .  A
O61         Ni66   1.921       .  S
O61          C70   1.285       .  A
O62         Ni66   1.927       .  S
O62          C69   1.282       .  A
O63         Ni66   1.903       .  S
O63          C68   1.277       .  A
O64         Ni66   1.903       .  S
O64          C67   1.278       .  A
Ni65        Ni66   2.387       .  S
C67         C579   1.474       .  S
C68         C478   1.477       .  S
C69         C467   1.480       .  S
C70         C450   1.491       .  S
O71         Ni79   1.926       .  S
O71          C81   1.286       .  A
O72         Ni79   1.931       .  S
O72          C82   1.282       .  A
O73         Ni79   1.896       .  S
O73          C83   1.276       .  A
O74         Ni79   1.903       .  S
O74          C84   1.280       .  A
O75         Ni80   1.933       .  S
O75          C84   1.284       .  A
O76         Ni80   1.927       .  S
O76          C83   1.286       .  A
O77         Ni80   1.905       .  S
O77          C82   1.280       .  A
O78         Ni80   1.908       .  S
O78          C81   1.278       .  A
Ni79        Ni80   2.385       .  S
C81         C621   1.487       .  S
C82         C481   1.476       .  S
C83         C436   1.484       .  S
C84         C520   1.485       .  S
O85         Ni93   1.930       .  S
O85          C95   1.284       .  A
O86         Ni93   1.935       .  S
O86          C96   1.284       .  A
O87         Ni93   1.906       .  S
O87          C97   1.278       .  A
O88         Ni93   1.913       .  S
O88          C98   1.279       .  A
O89         Ni94   1.922       .  S
O89          C98   1.284       .  A
O90         Ni94   1.917       .  S
O90          C97   1.283       .  A
O91         Ni94   1.895       .  S
O91          C96   1.278       .  A
O92         Ni94   1.898       .  S
O92          C95   1.276       .  A
Ni93        Ni94   2.389       .  S
C95         C495   1.466       .  S
C96         C425   1.475       .  S
C97         C408   1.479       .  S
C98         C649   1.482       .  S
O99        Ni107   1.923       .  S
O99         C109   1.283       .  A
O100       Ni107   1.921       .  S
O100        C110   1.282       .  A
O101       Ni107   1.905       .  S
O101        C111   1.280       .  A
O102       Ni107   1.899       .  S
O102        C112   1.279       .  A
O103       Ni108   1.931       .  S
O103        C112   1.284       .  A
O104       Ni108   1.934       .  S
O104        C111   1.285       .  A
O105       Ni108   1.908       .  S
O105        C110   1.279       .  A
O106       Ni108   1.910       .  S
O106        C109   1.279       .  A
Ni107      Ni108   2.386       .  S
C109        C537   1.475       .  S
C110        C422   1.474       .  S
C111        C464   1.490       .  S
C112        C394   1.488       .  S
O113       Ni121   1.929       .  S
O113        C123   1.285       .  A
O114       Ni121   1.931       .  S
O114        C124   1.284       .  A
O115       Ni121   1.916       .  S
O115        C125   1.281       .  A
O116       Ni121   1.915       .  S
O116        C126   1.279       .  A
O117       Ni122   1.920       .  S
O117        C126   1.284       .  A
O118       Ni122   1.924       .  S
O118        C125   1.282       .  A
O119       Ni122   1.908       .  S
O119        C124   1.279       .  A
O120       Ni122   1.913       .  S
O120        C123   1.279       .  A
Ni121      Ni122   2.387       .  S
C123        C352   1.482       .  S
C124        C383   1.480       .  S
C125        C369   1.480       .  S
C126        C453   1.484       .  S
O127       Ni135   1.944       .  S
O127        C137   1.288       .  A
O128       Ni135   1.946       .  S
O128        C138   1.286       .  A
O129       Ni135   1.912       .  S
O129        C139   1.278       .  A
O130       Ni135   1.919       .  S
O130        C140   1.281       .  A
O131       Ni136   1.918       .  S
O131        C140   1.283       .  A
O132       Ni136   1.914       .  S
O132        C139   1.283       .  A
O133       Ni136   1.891       .  S
O133        C138   1.277       .  A
O134       Ni136   1.893       .  S
O134        C137   1.277       .  A
Ni135      Ni136   2.386       .  S
C137        C324   1.490       .  S
C138        C380   1.479       .  S
C139        C439   1.477       .  S
C140        C338   1.485       .  S
O141       Ni149   1.926       .  S
O141        C151   1.285       .  A
O142       Ni149   1.933   1_455  S
O142        C152   1.283       .  A
O143       Ni149   1.911       .  S
O143        C153   1.281       .  A
O144       Ni149   1.926       .  S
O144        C154   1.281       .  A
O145       Ni150   1.931       .  S
O145        C154   1.286       .  A
O146       Ni150   1.932       .  S
O146        C153   1.284       .  A
O147       Ni150   1.906   1_455  S
O147        C152   1.280       .  A
O148       Ni150   1.908       .  S
O148        C151   1.277       .  A
Ni149      Ni150   2.385       .  S
C151        C282   1.484       .  S
C152        C310   1.477       .  S
C153        C509   1.490       .  S
C154        C296   1.497       .  S
O155       Ni163   1.927       .  S
O155        C165   1.286       .  A
O156       Ni163   1.929       .  S
O156        C166   1.283       .  A
O157       Ni163   1.909       .  S
O157        C167   1.281       .  A
O158       Ni163   1.910       .  S
O158        C168   1.278       .  A
O159       Ni164   1.928       .  S
O159        C168   1.287       .  A
O160       Ni164   1.928       .  S
O160        C167   1.283       .  A
O161       Ni164   1.908       .  S
O161        C166   1.279       .  A
O162       Ni164   1.911       .  S
O162        C165   1.278       .  A
Ni163      Ni164   2.384       .  S
C165        C271   1.488       .  S
C166        C313   1.475       .  S
C167        C366   1.490       .  S
C168        C551   1.490       .  S
O169       Ni177   1.927       .  S
O169        C179   1.285       .  A
O170       Ni177   1.933   1_565  S
O170        C180   1.282       .  A
O171       Ni177   1.923       .  S
O171        C181   1.283       .  A
O172       Ni177   1.913       .  S
O172        C182   1.281       .  A
O173       Ni178   1.919       .  S
O173        C182   1.282       .  A
O174       Ni178   1.925       .  S
O174        C181   1.282       .  A
O175       Ni178   1.906   1_565  S
O175        C180   1.281       .  A
O176       Ni178   1.914       .  S
O176        C179   1.279       .  A
Ni177      Ni178   2.386       .  S
C179        C268   1.486       .  S
C180        C257   1.478       .  S
C181        C243   1.487       .  S
C182        C397   1.483       .  S
O183       Ni191   1.932       .  S
O183        C193   1.287       .  A
O184       Ni191   1.939       .  S
O184        C194   1.285       .  A
O185       Ni191   1.909       .  S
O185        C195   1.278       .  A
O186       Ni191   1.915       .  S
O186        C196   1.279       .  A
O187       Ni192   1.916       .  S
O187        C196   1.283       .  A
O188       Ni192   1.916       .  S
O188        C195   1.284       .  A
O189       Ni192   1.897       .  S
O189        C194   1.277       .  A
O190       Ni192   1.899       .  S
O190        C193   1.275       .  A
Ni191      Ni192   2.386       .  S
C193        C285   1.481       .  S
C194        C254   1.478       .  S
C195        C411   1.483       .  S
C196        C341   1.480       .  S
O197       Ni205   1.944       .  S
O197        C207   1.288       .  A
O198       Ni205   1.943   1_455  S
O198        C208   1.286       .  A
O199       Ni205   1.922       .  S
O199        C209   1.280       .  A
O200       Ni205   1.926       .  S
O200        C210   1.282       .  A
O201       Ni206   1.929       .  S
O201        C210   1.285       .  A
O202       Ni206   1.927       .  S
O202        C209   1.286       .  A
O203       Ni206   1.903   1_455  S
O203        C208   1.277       .  A
O204       Ni206   1.908       .  S
O204        C207   1.279       .  A
Ni205      Ni206   2.384       .  S
C207        C327   1.495       .  S
C208        C229   1.482       .  S
C209        C635   1.489       .  S
C210        C299   1.494       .  S
O211       Ni219   1.928       .  S
O211        C221   1.286       .  A
O212       Ni219   1.931   1_565  S
O212        C222   1.281       .  A
O213       Ni219   1.917       .  S
O213        C223   1.283       .  A
O214       Ni219   1.905       .  S
O214        C224   1.280       .  A
O215       Ni220   1.926       .  S
O215        C224   1.283       .  A
O216       Ni220   1.931       .  S
O216        C223   1.283       .  A
O217       Ni220   1.911       .  S
O217        C222   1.282   1_545  A
O218       Ni220   1.918       .  S
O218        C221   1.280       .  A
Ni219      Ni220   2.383       .  S
C221        C355   1.495       .  S
C222        C226   1.479       .  S
C223        C240   1.496       .  S
C224        C593   1.487       .  S
C225        C226   1.399       .  A
C225        C230   1.395       .  A
C225        H232   1.086       .  S
C226        C227   1.414       .  A
C227        C228   1.409       .  A
C227        N234   1.429       .  S
C228        C229   1.406       .  A
C228        H233   1.086       .  S
C229        C230   1.412       .  A
C230        N231   1.429       .  S
N231        O235   1.262       .  A
N231        O236   1.262       .  A
N234        O238   1.262       .  A
N234        O237   1.262       .  A
C239        C240   1.408       .  A
C239        C244   1.402       .  A
C239        H246   1.088       .  S
C240        C241   1.417       .  A
C241        C242   1.404       .  A
C241        N248   1.428       .  S
C242        C243   1.404       .  A
C242        H247   1.088       .  S
C243        C244   1.411       .  A
C244        N245   1.428       .  S
N245        O249   1.262       .  A
N245        O250   1.262   1_545  A
N248        O252   1.262       .  A
N248        O251   1.262       .  A
C253        C254   1.405       .  A
C253        C258   1.409       .  A
C253        H260   1.083       .  S
C254        C255   1.411       .  A
C255        C256   1.393       .  A
C255        N262   1.429       .  S
C256        C257   1.399       .  A
C256        H261   1.084       .  S
C257        C258   1.414       .  A
C258        N259   1.429       .  S
N259        O263   1.262       .  A
N259        O264   1.262       .  A
N262        O266   1.262       .  A
N262        O265   1.262       .  A
C267        C268   1.403       .  A
C267        C272   1.401       .  A
C267        H274   1.087       .  S
C268        C269   1.415       .  A
C269        C270   1.399       .  A
C269        N276   1.427       .  S
C270        C271   1.401       .  A
C270        H275   1.087       .  S
C271        C272   1.417       .  A
C272        N273   1.428       .  S
N273        O277   1.262       .  A
N273        O278   1.262       .  A
N276        O280   1.262       .  A
N276        O279   1.261       .  A
C281        C282   1.402       .  A
C281        C286   1.399       .  A
C281        H288   1.087       .  S
C282        C283   1.417       .  A
C283        C284   1.398       .  A
C283        N290   1.427       .  S
C284        C285   1.399       .  A
C284        H289   1.087       .  S
C285        C286   1.417       .  A
C286        N287   1.429       .  S
N287        O291   1.262       .  A
N287        O292   1.262       .  A
N290        O294   1.261       .  A
N290        O293   1.262       .  A
C295        C296   1.403       .  A
C295        C300   1.402       .  A
C295        H302   1.088       .  S
C296        C297   1.418       .  A
C297        C298   1.407       .  A
C297        N304   1.428       .  S
C298        C299   1.405       .  A
C298        H303   1.088       .  S
C299        C300   1.415       .  A
C300        N301   1.426       .  S
N301        O305   1.260       .  A
N301        O306   1.262   1_655  A
N304        O308   1.262   1_655  A
N304        O307   1.262       .  A
C309        C310   1.401       .  A
C309        C314   1.396       .  A
C309        H316   1.086       .  S
C310        C311   1.414       .  A
C311        C312   1.405       .  A
C311        N318   1.428       .  S
C312        C313   1.402       .  A
C312        H317   1.086       .  S
C313        C314   1.409       .  A
C314        N315   1.429       .  S
N315        O319   1.262       .  A
N315        O320   1.262       .  A
N318        O322   1.262       .  A
N318        O321   1.262       .  A
C323        C324   1.406       .  A
C323        C328   1.399       .  A
C323        H330   1.085       .  S
C324        C325   1.408       .  A
C325        C326   1.407       .  A
C325        N332   1.427       .  S
C326        C327   1.413       .  A
C326        H331   1.085       .  S
C327        C328   1.411       .  A
C328        N329   1.427       .  S
N329        O333   1.262       .  A
N329        O334   1.260       .  A
N332        O336   1.261       .  A
N332        O335   1.262       .  A
C337        C338   1.406       .  A
C337        C342   1.402       .  A
C337        H344   1.083       .  S
C338        C339   1.414       .  A
C339        C340   1.397       .  A
C339        N346   1.427       .  S
C340        C341   1.400       .  A
C340        H345   1.084       .  S
C341        C342   1.414       .  A
C342        N343   1.429       .  S
N343        O347   1.262       .  A
N343        O348   1.262       .  A
N346        O350   1.262       .  A
N346        O349   1.261       .  A
C351        C352   1.400       .  A
C351        C356   1.402       .  A
C351        H358   1.091       .  S
C352        C353   1.413       .  A
C353        C354   1.401       .  A
C353        N360   1.429       .  S
C354        C355   1.406       .  A
C354        H359   1.090       .  S
C355        C356   1.420       .  A
C356        N357   1.428       .  S
N357        O361   1.262       .  A
N357        O362   1.262       .  A
N360        O364   1.262       .  A
N360        O363   1.262       .  A
C365        C366   1.407       .  A
C365        C370   1.398       .  A
C365        H372   1.086       .  S
C366        C367   1.415       .  A
C367        C368   1.403       .  A
C367        N374   1.428       .  S
C368        C369   1.404       .  A
C368        H373   1.086       .  S
C369        C370   1.408       .  A
C370        N371   1.427       .  S
N371        O375   1.262       .  A
N371        O376   1.261       .  A
N374        O378   1.262       .  A
N374        O377   1.262       .  A
C379        C380   1.401       .  A
C379        C384   1.394       .  A
C379        H386   1.084       .  S
C380        C381   1.411       .  A
C381        C382   1.407       .  A
C381        N388   1.425       .  S
C382        C383   1.405       .  A
C382        H387   1.084       .  S
C383        C384   1.410       .  A
C384        N385   1.427       .  S
N385        O389   1.261       .  A
N385        O390   1.262       .  A
N388        O392   1.261       .  A
N388        O391   1.262       .  A
C393        C394   1.406       .  A
C393        C398   1.395   1_556  A
C393        H400   1.075       .  S
C394        C395   1.413       .  A
C395        C396   1.403   1_556  A
C395        N402   1.428       .  S
C396        C397   1.407       .  A
C396        H401   1.075       .  S
C397        C398   1.410       .  A
C398        N399   1.428       .  S
N399        O403   1.261       .  A
N399        O404   1.260       .  A
N402        O406   1.261       .  A
N402        O405   1.262   1_545  A
C407        C408   1.403       .  A
C407        C412   1.398   1_556  A
C407        H414   1.086       .  S
C408        C409   1.414   1_556  A
C409        C410   1.395       .  A
C409        N416   1.429       .  S
C410        C411   1.403       .  A
C410        H415   1.086       .  S
C411        C412   1.417       .  A
C412        N413   1.429       .  S
N413        O417   1.262       .  A
N413        O418   1.262       .  A
N416        O420   1.261       .  A
N416        O419   1.262       .  A
C421        C422   1.404       .  A
C421        C426   1.403       .  A
C421        H428   1.083       .  S
C422        C423   1.409       .  A
C423        C424   1.395       .  A
C423        N430   1.429       .  S
C424        C425   1.402   1_545  A
C424        H429   1.084   1_545  S
C425        C426   1.411   1_565  A
C426        N427   1.427       .  S
N427        O431   1.262       .  A
N427        O432   1.262       .  A
N430        O434   1.262       .  A
N430        O433   1.261       .  A
C435        C436   1.404       .  A
C435        C440   1.400       .  A
C435        H442   1.085       .  S
C436        C437   1.418       .  A
C437        C438   1.394       .  A
C437        N444   1.430       .  S
C438        C439   1.400       .  A
C438        H443   1.085       .  S
C439        C440   1.413       .  A
C440        N441   1.428       .  S
N441        O445   1.261       .  A
N441        O446   1.262       .  A
N444        O448   1.262       .  A
N444        O447   1.262       .  A
C449        C450   1.406       .  A
C449        C454   1.400       .  A
C449        H456   1.086       .  S
C450        C451   1.418       .  A
C451        C452   1.399       .  A
C451        N458   1.429       .  S
C452        C453   1.403       .  A
C452        H457   1.087       .  S
C453        C454   1.414       .  A
C454        N455   1.429       .  S
N455        O459   1.262       .  A
N455        O460   1.262       .  A
N458        O462   1.262       .  A
N458        O461   1.262       .  A
C463        C464   1.408       .  A
C463        C468   1.400       .  A
C463        H470   1.086       .  S
C464        C465   1.413       .  A
C465        C466   1.402       .  A
C465        N472   1.427       .  S
C466        C467   1.404       .  A
C466        H471   1.087       .  S
C467        C468   1.409       .  A
C468        N469   1.427       .  S
N469        O473   1.262       .  A
N469        O474   1.261       .  A
N472        O476   1.262       .  A
N472        O475   1.262       .  A
C477        C478   1.404       .  A
C477        C482   1.407       .  A
C477        H484   1.087       .  S
C478        C479   1.410       .  A
C479        C480   1.394       .  A
C479        N486   1.426       .  S
C480        C481   1.398       .  A
C480        H485   1.088       .  S
C481        C482   1.412       .  A
C482        N483   1.428       .  S
N483        O487   1.262       .  A
N483        O488   1.262       .  A
N486        O490   1.262       .  A
N486        O489   1.261       .  A
C491        C492   1.408       .  A
C491        C496   1.402       .  A
C491        H498   1.081       .  S
C492        C493   1.420       .  A
C493        C494   1.399       .  A
C493        N500   1.429       .  S
C494        C495   1.395       .  A
C494        H499   1.082       .  S
C495        C496   1.407       .  A
C496        N497   1.431       .  S
N497        O501   1.262       .  A
N497        O502   1.262       .  A
N500        O504   1.261       .  A
N500        O503   1.262       .  A
C505        C506   1.408   1_554  A
C505        C510   1.403       .  A
C505        H512   1.083       .  S
C506        C507   1.413       .  A
C507        C508   1.400   1_556  A
C507        N514   1.428       .  S
C508        C509   1.406       .  A
C508        H513   1.083       .  S
C509        C510   1.413       .  A
C510        N511   1.428       .  S
N511        O515   1.262       .  A
N511        O516   1.260       .  A
N514        O518   1.262   1_655  A
N514        O517   1.262       .  A
C519        C520   1.406       .  A
C519        C524   1.397       .  A
C519        H526   1.087       .  S
C520        C521   1.411       .  A
C521        C522   1.402       .  A
C521        N528   1.428       .  S
C522        C523   1.408       .  A
C522        H527   1.086       .  S
C523        C524   1.411       .  A
C524        N525   1.428       .  S
N525        O529   1.261       .  A
N525        O530   1.262       .  A
N528        O532   1.262       .  A
N528        O531   1.262       .  A
C533        C534   1.404       .  A
C533        C538   1.397       .  A
C533        H540   1.087       .  S
C534        C535   1.421       .  A
C535        C536   1.401       .  A
C535        N542   1.429       .  S
C536        C537   1.399       .  A
C536        H541   1.087       .  S
C537        C538   1.410       .  A
C538        N539   1.428       .  S
N539        O543   1.262       .  A
N539        O544   1.262       .  A
N542        O546   1.262       .  A
N542        O545   1.262       .  A
C547        C548   1.403       .  A
C547        C552   1.400   1_556  A
C547        H554   1.091       .  S
C548        C549   1.414   1_556  A
C549        C550   1.401       .  A
C549        N556   1.427       .  S
C550        C551   1.404       .  A
C550        H555   1.091       .  S
C551        C552   1.418       .  A
C552        N553   1.429       .  S
N553        O557   1.262       .  A
N553        O558   1.262       .  A
N556        O560   1.261       .  A
N556        O559   1.262       .  A
C561        C562   1.400       .  A
C561        C566   1.393       .  A
C561        H568   1.088       .  S
C562        C563   1.412       .  A
C563        C564   1.406       .  A
C563        N570   1.425       .  S
C564        C565   1.403       .  A
C564        H569   1.087       .  S
C565        C566   1.410       .  A
C566        N567   1.428       .  S
N567        O571   1.262       .  A
N567        O572   1.262       .  A
N570        O574   1.262       .  A
N570        O573   1.261       .  A
C575        C576   1.404       .  A
C575        C580   1.396       .  A
C575        H582   1.086       .  S
C576        C577   1.421       .  A
C577        C578   1.403       .  A
C577        N584   1.429       .  S
C578        C579   1.399       .  A
C578        H583   1.087       .  S
C579        C580   1.409       .  A
C580        N581   1.429       .  S
N581        O585   1.262       .  A
N581        O586   1.262       .  A
N584        O588   1.262       .  A
N584        O587   1.262       .  A
C589        C590   1.404       .  A
C589        C594   1.398       .  A
C589        H596   1.085       .  S
C590        C591   1.410       .  A
C591        C592   1.398       .  A
C591        N598   1.428       .  S
C592        C593   1.408       .  A
C592        H597   1.085       .  S
C593        C594   1.413       .  A
C594        N595   1.428       .  S
N595        O599   1.262       .  A
N595        O600   1.262       .  A
N598        O602   1.261       .  A
N598        O601   1.262       .  A
C603        C604   1.404       .  A
C603        C608   1.402       .  A
C603        H610   1.088       .  S
C604        C605   1.415       .  A
C605        C606   1.403       .  A
C605        N612   1.429       .  S
C606        C607   1.407       .  A
C606        H611   1.088       .  S
C607        C608   1.416       .  A
C608        N609   1.428       .  S
N609        O613   1.262       .  A
N609        O614   1.262       .  A
N612        O616   1.262       .  A
N612        O615   1.262       .  A
C617        C618   1.400       .  A
C617        C622   1.398       .  A
C617        H624   1.085       .  S
C618        C619   1.414       .  A
C619        C620   1.399       .  A
C619        N626   1.429       .  S
C620        C621   1.404       .  A
C620        H625   1.085       .  S
C621        C622   1.418       .  A
C622        N623   1.429       .  S
N623        O627   1.262       .  A
N623        O628   1.262       .  A
N626        O630   1.262       .  A
N626        O629   1.262       .  A
C631        C632   1.406       .  A
C631        C636   1.405       .  A
C631        H638   1.091       .  S
C632        C633   1.419       .  A
C633        C634   1.399       .  A
C633        N640   1.428       .  S
C634        C635   1.401       .  A
C634        H639   1.091       .  S
C635        C636   1.415       .  A
C636        N637   1.428   1_655  S
N637        O641   1.262       .  A
N637        O642   1.262       .  A
N640        O644   1.262       .  A
N640        O643   1.262       .  A
C645        C646   1.402       .  A
C645        C650   1.400       .  A
C645        H652   1.085       .  S
C646        C647   1.416       .  A
C647        C648   1.400       .  A
C647        N654   1.429       .  S
C648        C649   1.402       .  A
C648        H653   1.085       .  S
C649        C650   1.414       .  A
C650        N651   1.428       .  S
N651        O655   1.262       .  A
N651        O656   1.262       .  A
N654        O658   1.262       .  A
N654        O657   1.262       .  A
C659        C660   1.404       .  A
C659        C664   1.406       .  A
C659        H666   1.087       .  S
C660        C661   1.411       .  A
C661        C662   1.394       .  A
C661        N668   1.429       .  S
C662        C663   1.400   1_655  A
C662        H667   1.088   1_655  S
C663        C664   1.412   1_455  A
C664        N665   1.428       .  S
N665        O669   1.262   1_655  A
N665        O670   1.262       .  A
N668        O672   1.262       .  A
N668        O671   1.262   1_545  A
