geometry optimzed in LAMMPS
_audit_creation_date              2020-12-01 
_audit_creation_method            'lammps2cif' 
_symmetry_space_group_name_H-M    'P1' 
_symmetry_Int_Tables_number       1 
_symmetry_cell_setting            triclinic 
loop_ 
_symmetry_equiv_pos_as_xyz 
  x,y,z 
_cell_length_a                    29.45007251 
_cell_length_b                    29.456484056588714 
_cell_length_c                    40.04468651832959 
_cell_angle_alpha                 90.00058676994735 
_cell_angle_beta                  90.0059541719478 
_cell_angle_gamma                 90.00192288603124 
loop_ 
_atom_site_label 
_atom_site_type_symbol 
_atom_site_fract_x 
_atom_site_fract_y 
_atom_site_fract_z 
_atom_site_charge 
O1          O  0.57625601  0.31009017  0.00362943    -0.56100
C2          C  0.47266903  0.31531814  0.44136125     0.76500
O3          O  0.49914697  0.32518391  0.05647657    -0.57300
C4          C  0.59447420  0.33098306  0.02795346     0.76500
C5          C  0.52674080  0.45946052  0.49095091     0.78900
Cd6        Cd  0.50959164  0.36136258  0.00169468     1.37500
O7          O  0.50637120  0.29941151  0.45714284    -0.56100
O8          O  0.54996709  0.42999518  0.47546719    -0.54900
C9          C  0.45668978  0.32147476  0.05472128     0.78800
O10         O  0.49819104  0.44273921  0.01496164    -0.57300
O11         O  0.45937184  0.35423971  0.45054628    -0.55800
O12         O  0.57730529  0.36866471  0.03611922    -0.55700
O13         O  0.43736573  0.34210279  0.03092746    -0.54900
O14         O  0.56167025  0.66160618  0.02572805    -0.56100
C15         C  0.47919400  0.64789060  0.45265220     0.76500
O16         O  0.57476138  0.61684275  0.42156884    -0.57300
C17         C  0.59539992  0.64477115  0.04101361     0.76500
C18         C  0.53741506  0.50824436  0.48867574     0.78900
Cd19       Cd  0.55698336  0.60400200  0.48143892     1.37500
O20         O  0.51037087  0.66987096  0.46721733    -0.56100
O21         O  0.51919605  0.53528497  0.00895100    -0.54900
C22         C  0.61325631  0.63388125  0.42713869     0.78800
O23         O  0.57039837  0.52250996  0.47126939    -0.57300
O24         O  0.47933865  0.60530753  0.45643481    -0.55800
O25         O  0.60912872  0.60656244  0.03052885    -0.55700
O26         O  0.62916962  0.62857810  0.45617821    -0.54900
O27         O  0.00980760  0.30369608  0.28092661    -0.56100
C28         C  0.10098777  0.33478938  0.20482838     0.76500
O29         O  0.00819846  0.30453941  0.18830853    -0.57300
C30         C  0.96920694  0.31301438  0.28887818     0.76500
C31         C  0.02866002  0.45524238  0.24193032     0.78900
Cd32       Cd  0.01526047  0.35885782  0.23280745     1.37500
O33         O  0.08664616  0.31449480  0.23078184    -0.56100
O34         O  0.04879406  0.42657328  0.26035552    -0.54900
C35         C  0.97000570  0.31608277  0.17717767     0.78800
O36         O  0.00020082  0.43962653  0.22116011    -0.57300
O37         O  0.08035980  0.37055004  0.19622385    -0.55800
O38         O  0.95083728  0.34488707  0.27254303    -0.55700
O39         O  0.95176040  0.35073407  0.19038649    -0.54900
O40         O  0.98556740  0.65269422  0.25235082    -0.56100
C41         C  0.09350581  0.64364192  0.19040570     0.76500
O42         O  0.06476733  0.63377827  0.30582241    -0.57300
C43         C  0.96876389  0.63348271  0.27795926     0.76500
C44         C  0.03807637  0.50424057  0.24412121     0.78900
Cd45       Cd  0.05273009  0.60100352  0.25029679     1.37500
O46         O  0.05676032  0.65843582  0.20288308    -0.56100
O47         O  0.01746928  0.53261531  0.22581162    -0.54900
C48         C  0.10683167  0.63978580  0.30315647     0.78800
O49         O  0.06739440  0.52016881  0.26407333    -0.57300
O50         O  0.10954038  0.60828457  0.20396993    -0.55800
O51         O  0.98686139  0.59667298  0.28706936    -0.55700
O52         O  0.12579654  0.62254046  0.27781590    -0.54900
O53         O  0.60190890  0.25942686  0.14903771    -0.56100
C54         C  0.62610777  0.17343299  0.07639351     0.76500
O55         O  0.63887254  0.26830082  0.04559214    -0.57300
C56         C  0.61617454  0.29609611  0.16191236     0.76500
C57         C  0.75777812  0.23794748  0.11540687     0.78900
Cd58       Cd  0.66223913  0.25506968  0.10416700     1.37500
O59         O  0.60492572  0.19475513  0.09910071    -0.56100
O60         O  0.72760231  0.21735303  0.13213855    -0.54900
C61         C  0.62763127  0.30907842  0.04987688     0.78800
O62         O  0.74401329  0.26815303  0.09531406    -0.57300
O63         O  0.66655774  0.18539776  0.07071290    -0.55800
O64         O  0.65249840  0.31194370  0.14966441    -0.55700
O65         O  0.64011414  0.32733659  0.07693192    -0.54900
O66         O  0.96851058  0.25263981  0.14124207    -0.56100
C67         C  0.94552771  0.16922498  0.06592128     0.76500
O68         O  0.91814476  0.19373698  0.18519212    -0.57300
C69         C  0.94727328  0.28615999  0.15327301     0.76500
C70         C  0.80639006  0.22706855  0.11860534     0.78900
Cd71       Cd  0.90252269  0.20864010  0.12565036     1.37500
O72         O  0.95790500  0.20740904  0.07732217    -0.56100
O73         O  0.83595018  0.24651431  0.10061243    -0.54900
C74         C  0.93141824  0.15354332  0.18066948     0.78800
O75         O  0.82080182  0.19757886  0.13904232    -0.57300
O76         O  0.91181135  0.15113899  0.08030564    -0.55800
O77         O  0.90516157  0.28835255  0.14727372    -0.55700
O78         O  0.92338757  0.13619666  0.15238535    -0.54900
O79         O  0.56201105  0.16606130  0.45951336    -0.56100
C80         C  0.46582856  0.13063708  0.02623392     0.76500
O81         O  0.56385144  0.02138414  0.01148189    -0.57300
C82         C  0.59211833  0.14777274  0.44140625     0.76500
C83         C  0.60253901  0.14215934  0.05391766     0.78900
Cd84       Cd  0.55093867  0.10272058  0.99976385     1.37500
O85         O  0.48189090  0.15035936  0.00058319    -0.56100
O86         O  0.62264435  0.12066794  0.03087359    -0.54900
C87         C  0.53749676  0.00547178  0.49260788     0.78800
O88         O  0.55990434  0.14049482  0.05385920    -0.57300
O89         O  0.48564131  0.09500330  0.03601774    -0.55800
O90         O  0.60264648  0.10737680  0.44899501    -0.55700
O91         O  0.51492612  0.03526490  0.47697441    -0.54900
O92         O  0.50481582  0.81007920  0.03034084    -0.56100
C93         C  0.58354999  0.82214587  0.45344434     0.76500
O94         O  0.48959130  0.84403417  0.42338442    -0.57300
C95         C  0.46545381  0.82058694  0.04057099     0.76500
C96         C  0.52544307  0.95711212  0.49057970     0.78900
Cd97       Cd  0.50436317  0.86224367  0.48239382     1.37500
O98         O  0.55860089  0.79990159  0.47344004    -0.56100
O99         O  0.54203906  0.92916812  0.00688916    -0.54900
C100        C  0.44903947  0.83193052  0.42748460     0.78800
O101        O  0.49268011  0.94369378  0.47262371    -0.57300
O102        O  0.57640301  0.86428899  0.45132441    -0.55800
O103        O  0.44584678  0.85253641  0.02508293    -0.55700
O104        O  0.43132760  0.84110469  0.45542569    -0.54900
O105        O  0.95755908  0.70273278  0.39750576    -0.56100
C106        C  0.92941371  0.79343249  0.32573016     0.76500
O107        O  0.92524018  0.69705588  0.29540491    -0.57300
C108        C  0.93906929  0.66988364  0.41283665     0.76500
C109        C  0.80159854  0.72706707  0.36254619     0.78900
Cd110      Cd  0.89708878  0.71022735  0.35305067     1.37500
O111        O  0.94943287  0.77574359  0.35065430    -0.56100
O112        O  0.83137790  0.74782820  0.37949797    -0.54900
C113        C  0.93563642  0.65607625  0.29970363     0.78800
O114        O  0.81569170  0.69683967  0.34253103    -0.57300
O115        O  0.89146642  0.77691086  0.31754382    -0.55800
O116        O  0.90047334  0.65778148  0.40209171    -0.55700
O117        O  0.92161404  0.63788379  0.32639490    -0.54900
O118        O  0.61344311  0.67975871  0.37780186    -0.56100
C119        C  0.61439522  0.79505847  0.31721964     0.76500
O120        O  0.60862591  0.75747716  0.42441916    -0.57300
C121        C  0.63397380  0.66618639  0.40393577     0.76500
C122        C  0.75302198  0.73735259  0.36598962     0.78900
Cd123      Cd  0.65721448  0.75159003  0.37538522     1.37500
O124        O  0.60321052  0.75537480  0.32642298    -0.56100
O125        O  0.72364459  0.71790538  0.34786512    -0.54900
C126        C  0.61391972  0.79908830  0.43002747     0.78800
O127        O  0.73844428  0.76577502  0.38722201    -0.57300
O128        O  0.64607983  0.81353648  0.33366220    -0.59000
O129        O  0.66898632  0.68796397  0.41273682    -0.55700
O130        O  0.64242790  0.81974327  0.41178952    -0.54900
O131        O  0.05124714  0.15738318  0.28411749    -0.56100
C132        C  0.96253810  0.13177756  0.20415106     0.76500
O133        O  0.05569183  0.16402560  0.19229940    -0.57300
C134        C  0.09202039  0.14776905  0.29145523     0.76500
C135        C  0.02972255  0.01047584  0.24149844     0.78900
Cd136      Cd  0.04640273  0.10636905  0.23381261     1.37500
O137        O  0.97611186  0.15182713  0.23044088    -0.56100
O138        O  0.01021053  0.03932688  0.26013056    -0.54900
C139        C  0.09245620  0.15103846  0.17954131     0.78800
O140        O  0.05883776  0.02566100  0.22102689    -0.57300
O141        O  0.98324163  0.09600689  0.19568162    -0.55800
O142        O  0.11066088  0.11749102  0.27370024    -0.55700
O143        O  0.10964506  0.11477466  0.19114636    -0.54900
O144        O  0.07172389  0.81208868  0.25291197    -0.56100
C145        C  0.96805028  0.81990435  0.19128082     0.76500
O146        O  0.99335874  0.83563103  0.30781128    -0.57300
C147        C  0.09022622  0.83208743  0.27748261     0.76500
C148        C  0.01947043  0.96164743  0.24350338     0.78900
Cd149      Cd  0.00609518  0.86482352  0.25078380     1.37500
O150        O  0.00609416  0.80793818  0.20325954    -0.56100
O151        O  0.03941725  0.93316030  0.22492952    -0.54900
C152        C  0.95220678  0.82574749  0.30366824     0.78800
O153        O  0.99063820  0.94588459  0.26389797    -0.57300
O154        O  0.94939369  0.85370076  0.20520062    -0.55800
O155        O  0.07363437  0.86986192  0.28601121    -0.55700
O156        O  0.93392936  0.83962492  0.27698095    -0.54900
O157        O  0.10929037  0.69136666  0.34888243    -0.56100
C158        C  0.12078783  0.79537886  0.41076949     0.76500
O159        O  0.24384238  0.76818325  0.34017597    -0.57300
C160        C  0.13013340  0.67166714  0.32521045     0.76500
C161        C  0.12369329  0.80942671  0.29879899     0.78900
Cd162      Cd  0.16273840  0.75513754  0.35154543     1.37500
O163        O  0.10340351  0.76085936  0.39677840    -0.56100
O164        O  0.13816813  0.82753808  0.32536777    -0.54900
C165        C  0.25834898  0.74027656  0.36178358     0.78800
O166        O  0.13403112  0.76845809  0.29424536    -0.57300
O167        O  0.15794332  0.80933924  0.39866045    -0.55800
O168        O  0.16935997  0.68602768  0.31809466    -0.55700
O169        O  0.22885916  0.72088034  0.37985049    -0.54900
O170        O  0.44827029  0.78651555  0.37824568    -0.56100
C171        C  0.44429437  0.67271708  0.31616763     0.76500
O172        O  0.46011731  0.70901482  0.41771247    -0.57300
C173        C  0.42735760  0.80087140  0.40393461     0.76500
C174        C  0.30705576  0.73080716  0.36556074     0.78900
Cd175      Cd  0.40304758  0.71657701  0.37464112     1.37500
O176        O  0.45131933  0.71431595  0.32259332    -0.56100
O177        O  0.33630071  0.75027029  0.34731574    -0.54900
C178        C  0.44905695  0.67062301  0.42877944     0.78800
O179        O  0.32185814  0.70284008  0.38705143    -0.57300
O180        O  0.41691383  0.65239784  0.33538795    -0.55800
O181        O  0.39092648  0.78086126  0.41183792    -0.55700
O182        O  0.41420308  0.65229584  0.41584329    -0.54900
O183        O  0.10001950  0.26036514  0.07942010    -0.56100
C184        C  0.11457929  0.18058945  0.15511759     0.76500
O185        O  0.24042164  0.26771150  0.13517237    -0.57300
C186        C  0.11438517  0.29694887  0.06655533     0.76500
C187        C  0.13235200  0.31291604  0.18148571     0.78900
Cd188      Cd  0.15832940  0.25726489  0.12580043     1.37500
O189        O  0.09293759  0.21382372  0.14298702    -0.56100
O190        O  0.14105875  0.33041864  0.15336086    -0.54900
C191        C  0.25301681  0.23578726  0.11610775     0.78800
O192        O  0.14446781  0.27230433  0.18566644    -0.57300
O193        O  0.15649554  0.17818501  0.14847075    -0.55800
O194        O  0.15001861  0.31332981  0.07944099    -0.55700
O195        O  0.22210347  0.21499093  0.10028182    -0.54900
O196        O  0.45648800  0.20129520  0.14614108    -0.56100
C197        C  0.43275801  0.28865407  0.07569764     0.76500
O198        O  0.42073934  0.19296141  0.04321339    -0.57300
C199        C  0.44188100  0.16502595  0.15937493     0.76500
C200        C  0.30120913  0.22382357  0.11234736     0.78900
Cd201      Cd  0.39643420  0.20584162  0.10144662     1.37500
O202        O  0.45257447  0.26799008  0.09938785    -0.56100
O203        O  0.33187392  0.24440587  0.12853104    -0.54900
C204        C  0.43204551  0.15222417  0.04766313     0.78800
O205        O  0.31419445  0.19280521  0.09263090    -0.57300
O206        O  0.39369585  0.27479497  0.06762410    -0.55800
O207        O  0.40558516  0.14905663  0.14713769    -0.55700
O208        O  0.41913578  0.13385305  0.07455554    -0.54900
O209        O  0.96089368  0.75912372  0.15076956    -0.56100
C210        C  0.93722275  0.67179268  0.07703124     0.76500
O211        O  0.82064005  0.76800100  0.09602805    -0.57300
C212        C  0.94598187  0.79605678  0.16285294     0.76500
C213        C  0.93664796  0.80561176  0.04949948     0.78900
Cd214      Cd  0.90197669  0.75334581  0.10464410     1.37500
O215        O  0.95819037  0.69205393  0.10041723    -0.56100
O216        O  0.92284975  0.82459745  0.07591938    -0.54900
C217        C  0.80666314  0.73651171  0.11494635     0.78800
O218        O  0.92755964  0.76416024  0.04626215    -0.57300
O219        O  0.89708383  0.68445094  0.07096731    -0.55800
O220        O  0.91033950  0.81158175  0.14939817    -0.55700
O221        O  0.83660005  0.71425636  0.13070320    -0.54900
O222        O  0.61067302  0.70953179  0.07651236    -0.56100
C223        C  0.62945431  0.79497093  0.15396935     0.76500
O224        O  0.62510058  0.70391021  0.18227992    -0.57300
C225        C  0.61793698  0.66818116  0.06937178     0.76500
C226        C  0.75803069  0.72642563  0.11831719     0.78900
Cd227      Cd  0.66184353  0.71129019  0.12733534     1.37500
O228        O  0.60937322  0.77715922  0.12909227    -0.56100
O229        O  0.72854543  0.74780571  0.10156842    -0.54900
C230        C  0.62258120  0.66132663  0.18245631     0.78800
O231        O  0.74345634  0.69608290  0.13797524    -0.57300
O232        O  0.66707453  0.77795364  0.16254483    -0.55800
O233        O  0.64622398  0.64777084  0.08778564    -0.55700
O234        O  0.64347006  0.64073524  0.15936243    -0.54900
O235        O  0.07615831  0.15414161  0.47732328    -0.56100
C236        C  0.96887595  0.14650437  0.03761440     0.76500
O237        O  0.00384900  0.13048719  0.42255486    -0.57300
C238        C  0.09653449  0.13358584  0.45383884     0.76500
C239        C  0.03203637  0.00461850  0.48721019     0.78900
Cd240      Cd  0.01333114  0.09950642  0.47874513     1.37500
O241        O  0.00875445  0.15691770  0.02835591    -0.56100
O242        O  0.04473275  0.03419478  0.00613442    -0.54900
C243        C  0.96133304  0.13371478  0.42335649     0.78800
O244        O  0.00092718  0.01825806  0.46778391    -0.57300
O245        O  0.94998873  0.11475392  0.02149228    -0.55800
O246        O  0.08332352  0.09392950  0.44685795    -0.55700
O247        O  0.94139695  0.11455966  0.44756582    -0.54900
O248        O  0.06019896  0.80855361  0.45031270    -0.56100
C249        C  0.96875299  0.82808671  0.02717065     0.76500
O250        O  0.06342611  0.82631738  0.05501628    -0.57300
C251        C  0.09958443  0.81842187  0.43971841     0.76500
C252        C  0.04374094  0.95639644  0.48999919     0.78900
Cd253      Cd  0.05197508  0.85986016  0.99972790     1.37500
O254        O  0.98527861  0.80847450  0.00163509    -0.56100
O255        O  0.02223130  0.92614699  0.47401100    -0.54900
C256        C  0.10572078  0.82151332  0.05319404     0.78800
O257        O  0.06446973  0.94160860  0.01102519    -0.57300
O258        O  0.98665636  0.86513132  0.03597216    -0.55800
O259        O  0.12025928  0.84953165  0.45535986    -0.55700
O260        O  0.12519713  0.84029932  0.02862630    -0.54900
O261        O  0.98631668  0.30845994  0.47548453    -0.56100
C262        C  0.09137909  0.31955486  0.03809149     0.76500
O263        O  0.06531297  0.33559754  0.41945089    -0.57300
C264        C  0.96871298  0.32669850  0.44983386     0.76500
C265        C  0.03340092  0.45800751  0.48593410     0.78900
Cd266      Cd  0.05125994  0.36253727  0.47659451     1.37500
O267        O  0.05158057  0.30916209  0.02869323    -0.56100
O268        O  0.01497760  0.42968619  0.00445865    -0.54900
C269        C  0.10680830  0.32742083  0.42378884     0.78800
O270        O  0.06198439  0.44426494  0.46460276    -0.57300
O271        O  0.11068547  0.35084523  0.02174888    -0.55800
O272        O  0.98511788  0.36417298  0.44047123    -0.55700
O273        O  0.12457876  0.34260079  0.45026802    -0.54900
O274        O  0.00163834  0.65460699  0.45039938    -0.56100
C275        C  0.09641885  0.63255830  0.02667671     0.76500
O276        O  0.00352634  0.64024835  0.05377401    -0.57300
C277        C  0.96115825  0.64635125  0.44140173     0.76500
C278        C  0.02164909  0.50625983  0.48925078     0.78900
Cd279      Cd  0.01243607  0.60371223  0.99914558     1.37500
O280        O  0.08080934  0.65226131  0.00085492    -0.56100
O281        O  0.04108133  0.53673375  0.47208329    -0.54900
C282        C  0.96090734  0.64147058  0.05400479     0.78800
O283        O  0.99688607  0.52251176  0.00957149    -0.57300
O284        O  0.07694094  0.59652698  0.03600520    -0.55800
O285        O  0.94058142  0.61612887  0.45804023    -0.55700
O286        O  0.94086935  0.62071074  0.03057754    -0.54900
O287        O  0.10413132  0.70382527  0.14977518    -0.56100
C288        C  0.12887601  0.78959298  0.07545077     0.76500
O289        O  0.24446639  0.69283648  0.09476261    -0.57300
C290        C  0.11698765  0.66614826  0.16187790     0.76500
C291        C  0.12901674  0.65450482  0.04880403     0.78900
Cd292      Cd  0.16306440  0.70720066  0.10354642     1.37500
O293        O  0.10750935  0.76905333  0.09848827    -0.56100
O294        O  0.14268123  0.63548452  0.07525762    -0.54900
C295        C  0.25789847  0.72446771  0.11375927     0.78800
O296        O  0.13832229  0.69588441  0.04543634    -0.57300
O297        O  0.16875363  0.77621907  0.06927818    -0.55800
O298        O  0.15175695  0.64876175  0.14836320    -0.55700
O299        O  0.22773848  0.74587476  0.12987026    -0.54900
O300        O  0.45730812  0.75894119  0.07977132    -0.56100
C301        C  0.43357194  0.66954955  0.15225391     0.76500
O302        O  0.42998368  0.76331923  0.18406040    -0.57300
C303        C  0.44325046  0.79681606  0.06877702     0.76500
C304        C  0.30611315  0.73586734  0.11693177     0.78900
Cd305      Cd  0.40088836  0.75342366  0.12665615     1.37500
O306        O  0.45562088  0.68997971  0.12947168    -0.56100
O307        O  0.33611872  0.71546384  0.09998167    -0.54900
C308        C  0.43747349  0.80519856  0.18150810     0.78800
O309        O  0.31967740  0.76655980  0.13671111    -0.57300
O310        O  0.39422834  0.68404402  0.15881885    -0.55800
O311        O  0.40862706  0.81316268  0.08311286    -0.55700
O312        O  0.42165127  0.82468910  0.15590984    -0.54900
O313        O  0.50280444  0.15654181  0.19932468    -0.56100
C314        C  0.58030105  0.14929731  0.27781387     0.76500
O315        O  0.48612462  0.11262879  0.30813234    -0.57300
C316        C  0.46509100  0.14275732  0.18788529     0.76500
C317        C  0.52607927  0.00761942  0.24101021     0.78900
Cd318      Cd  0.50484173  0.10268091  0.24832466     1.37500
O319        O  0.54636632  0.17003883  0.26590134    -0.56100
O320        O  0.54613360  0.03745857  0.22362712    -0.54900
C321        C  0.44722236  0.12892005  0.30278490     0.78800
O322        O  0.49517987  0.02146194  0.26048487    -0.57300
O323        O  0.58359447  0.10748521  0.27112158    -0.55800
O324        O  0.44777429  0.10889332  0.20258102    -0.55700
O325        O  0.43168818  0.12469113  0.27351134    -0.54900
O326        O  0.49096294  0.80645969  0.22625877    -0.56100
C327        C  0.59222998  0.81870514  0.28881713     0.76500
O328        O  0.56605122  0.83856248  0.17146291    -0.57300
C329        C  0.46962724  0.82794826  0.20372683     0.76500
C330        C  0.53740441  0.95916016  0.23849026     0.78900
Cd331      Cd  0.55281722  0.86317895  0.22981363     1.37500
O332        O  0.55586941  0.80442231  0.27552600    -0.56100
O333        O  0.51779188  0.92982587  0.25655949    -0.54900
C334        C  0.60682208  0.82740597  0.17600660     0.78800
O335        O  0.56663132  0.94456172  0.21792908    -0.57300
O336        O  0.60879311  0.85459101  0.27634590    -0.55800
O337        O  0.48251421  0.86796690  0.19765316    -0.55700
O338        O  0.62467078  0.83956449  0.20327887    -0.54900
O339        O  0.10242648  0.20650084  0.33273128    -0.56100
C340        C  0.13038246  0.29474533  0.40259915     0.76500
O341        O  0.13138543  0.19992338  0.43320771    -0.57300
C342        C  0.11662866  0.17031320  0.31919983     0.76500
C343        C  0.25917700  0.22428065  0.36942713     0.78900
Cd344      Cd  0.16296158  0.21058583  0.37712359     1.37500
O345        O  0.11090598  0.27616640  0.37783887    -0.56100
O346        O  0.23072352  0.24600662  0.35188702    -0.54900
C347        C  0.12722894  0.15753446  0.43137242     0.78800
O348        O  0.24336929  0.19453813  0.38904503    -0.57300
O349        O  0.16803952  0.27837810  0.41169195    -0.55800
O350        O  0.15329797  0.15439709  0.33080395    -0.55700
O351        O  0.14482799  0.13839159  0.40625001    -0.54900
O352        O  0.45640076  0.24832359  0.40821211    -0.56100
C353        C  0.42581335  0.15974192  0.32672186     0.76500
O354        O  0.32407997  0.26162037  0.34655293    -0.57300
C355        C  0.44949211  0.29013379  0.41404176     0.76500
C356        C  0.44850019  0.29029002  0.30332201     0.78900
Cd357      Cd  0.40441098  0.24410972  0.35770334     1.37500
O358        O  0.44500655  0.17052943  0.35405589    -0.56100
O359        O  0.41273760  0.30735707  0.31578440    -0.54900
C360        C  0.30817880  0.23282212  0.36692985     0.78800
O361        O  0.46125603  0.25267879  0.31493621    -0.57300
O362        O  0.39208839  0.18330918  0.31774612    -0.55800
O363        O  0.42074817  0.30943996  0.39535941    -0.55700
O364        O  0.33657556  0.21147407  0.38481450    -0.54900
O365        O  0.56773497  0.66013955  0.22622599    -0.56100
C366        C  0.46664325  0.64881773  0.28797016     0.76500
O367        O  0.49677958  0.62754223  0.17155835    -0.57300
C368        C  0.59063000  0.63830144  0.20474406     0.76500
C369        C  0.52199139  0.50609914  0.23922733     0.78900
Cd370      Cd  0.50702907  0.60256833  0.22979087     1.37500
O371        O  0.49960549  0.66582230  0.27199942    -0.56100
O372        O  0.54351853  0.53568878  0.25589514    -0.54900
C373        C  0.45532472  0.63687844  0.17452013     0.78800
O374        O  0.49158029  0.52072974  0.21958455    -0.57300
O375        O  0.45396457  0.60980564  0.27852734    -0.55800
O376        O  0.57944460  0.59749611  0.19967487    -0.55700
O377        O  0.43576132  0.62288512  0.20068271    -0.54900
O378        O  0.55427838  0.30649106  0.20097261    -0.56100
C379        C  0.47771810  0.31385840  0.27936983     0.76500
O380        O  0.57182854  0.34751538  0.30919755    -0.57300
C381        C  0.59258266  0.31920675  0.18993685     0.76500
C382        C  0.53243702  0.45728155  0.24223740     0.78900
Cd383      Cd  0.55274960  0.36123682  0.24977849     1.37500
O384        O  0.51146607  0.29359429  0.26679867    -0.56100
O385        O  0.51146039  0.42740423  0.22546550    -0.54900
C386        C  0.61147393  0.33348675  0.30326051     0.78800
O387        O  0.56345367  0.44309313  0.26149253    -0.57300
O388        O  0.47423873  0.35588493  0.27344689    -0.55800
O389        O  0.61014221  0.35302613  0.20450764    -0.55700
O390        O  0.62687319  0.34097472  0.27431743    -0.54900
O391        O  0.95827450  0.25123443  0.32783858    -0.56100
C392        C  0.93802578  0.16506911  0.40083906     0.76500
O393        O  0.92714740  0.26141055  0.43297137    -0.57300
C394        C  0.94477895  0.28884690  0.31606157     0.76500
C395        C  0.80408872  0.23384637  0.36711508     0.78900
Cd396      Cd  0.90097238  0.24747550  0.37478530     1.37500
O397        O  0.96011625  0.18908312  0.38017714    -0.56100
O398        O  0.83246358  0.21103804  0.35022763    -0.54900
C399        C  0.93677715  0.30254568  0.42821289     0.78800
O400        O  0.82027706  0.26382464  0.38640165    -0.57300
O401        O  0.89661130  0.17471436  0.40491239    -0.55800
O402        O  0.90926584  0.30508874  0.32922747    -0.55700
O403        O  0.92327075  0.31978786  0.40110427    -0.54900
O404        O  0.60841861  0.21400247  0.40761727    -0.56100
C405        C  0.63418278  0.30167248  0.32587233     0.76500
O406        O  0.73815030  0.19676295  0.34489328    -0.57300
C407        C  0.61431877  0.17201755  0.41325815     0.76500
C408        C  0.61025857  0.17197270  0.30178223     0.78900
Cd409      Cd  0.65748160  0.21679757  0.35565703     1.37500
O410        O  0.61722201  0.29074490  0.35394462    -0.56100
O411        O  0.64688788  0.15485921  0.31278284    -0.54900
C412        C  0.75474532  0.22646003  0.36427590     0.78800
O413        O  0.59764978  0.20878606  0.31477010    -0.57300
O414        O  0.66674005  0.27771618  0.31519520    -0.55800
O415        O  0.64106294  0.15171947  0.39357884    -0.55700
O416        O  0.72667370  0.24993903  0.38091557    -0.54900
O417        O  0.57349197  0.30743464  0.50401293    -0.56100
C418        C  0.46853739  0.31747435  0.94291344     0.76500
O419        O  0.49894092  0.33731564  0.55769347    -0.57300
C420        C  0.59446161  0.32879315  0.52679916     0.76500
C421        C  0.52617268  0.45719150  0.99340992     0.78900
Cd422      Cd  0.51139211  0.36303581  0.49973805     1.37500
O423        O  0.50632377  0.30429253  0.95463508    -0.56100
O424        O  0.54365674  0.42790321  0.97417463    -0.54900
C425        C  0.45741746  0.32855277  0.55429680     0.78800
O426        O  0.49429063  0.44473765  0.50868632    -0.57300
O427        O  0.45104438  0.35171440  0.95705322    -0.55800
O428        O  0.58164117  0.36890429  0.53272160    -0.55700
O429        O  0.43879643  0.34257765  0.52777259    -0.54900
O430        O  0.56258457  0.66082373  0.52874123    -0.56100
C431        C  0.47421867  0.63573568  0.95484753     0.76500
O432        O  0.57209783  0.62053896  0.92296880    -0.57300
C433        C  0.59797888  0.64395650  0.54183164     0.76500
C434        C  0.53806751  0.50549228  0.99083334     0.78900
Cd435      Cd  0.55651687  0.60053347  0.98181140     1.37500
O436        O  0.49678643  0.65824027  0.97614558    -0.56100
O437        O  0.51450619  0.53798741  0.50418055    -0.54900
C438        C  0.61200375  0.63408858  0.92809660     0.78800
O439        O  0.56785192  0.51929395  0.97037819    -0.57300
O440        O  0.48545982  0.59486850  0.95042607    -0.55800
O441        O  0.61181158  0.60714647  0.52910945    -0.55700
O442        O  0.62903733  0.62480074  0.95624628    -0.54900
O443        O  0.00129351  0.30519179  0.77393225    -0.56100
C444        C  0.08523575  0.32148348  0.69868554     0.76500
O445        O  0.99080120  0.34104450  0.66697044    -0.57300
C446        C  0.96301876  0.31821916  0.78484793     0.76500
C447        C  0.02121870  0.45644678  0.73660985     0.78900
Cd448      Cd  0.00428878  0.36093838  0.72599791     1.37500
O449        O  0.05715448  0.29839614  0.71563088    -0.56100
O450        O  0.04118528  0.42622230  0.75366450    -0.54900
C451        C  0.95041800  0.32837949  0.67134267     0.78800
O452        O  0.99188680  0.44279323  0.71574801    -0.57300
O453        O  0.08033236  0.36410230  0.69912490    -0.55800
O454        O  0.94539803  0.35173898  0.76995171    -0.55700
O455        O  0.93215226  0.33909884  0.69879261    -0.54900
O456        O  0.98832227  0.65739815  0.75579577    -0.56100
C457        C  0.08797747  0.64799241  0.69336360     0.76500
O458        O  0.06108013  0.62919386  0.80852557    -0.57300
C459        C  0.96761801  0.63673989  0.77906006     0.76500
C460        C  0.03168732  0.50497792  0.74077273     0.78900
Cd461      Cd  0.04902510  0.60076677  0.75143491     1.37500
O462        O  0.05017265  0.65994336  0.70567140    -0.56100
O463        O  0.01085845  0.53532586  0.72443738    -0.54900
C464        C  0.10313750  0.63549362  0.80592210     0.78800
O465        O  0.06207053  0.51853884  0.76081229    -0.57300
O466        O  0.10603947  0.61314726  0.70624944    -0.55800
O467        O  0.98003496  0.59659458  0.78539297    -0.55700
O468        O  0.12201870  0.61953619  0.78007856    -0.54900
O469        O  0.60416401  0.25668204  0.64960855    -0.56100
C470        C  0.63201234  0.16886929  0.57640697     0.76500
O471        O  0.62921554  0.26293842  0.54835431    -0.57300
C472        C  0.61834886  0.29334845  0.66251804     0.76500
C473        C  0.75892620  0.23495740  0.61167366     0.78900
Cd474      Cd  0.66332320  0.25262881  0.60367938     1.37500
O475        O  0.61207135  0.18631664  0.60146295    -0.56100
O476        O  0.72952836  0.21457778  0.62921287    -0.54900
C477        C  0.62589684  0.30542759  0.54929838     0.78800
O478        O  0.74451203  0.26562347  0.59219831    -0.57300
O479        O  0.66944660  0.18617670  0.56778073    -0.55800
O480        O  0.65426770  0.30953284  0.64984782    -0.55700
O481        O  0.64537388  0.32515852  0.57345471    -0.54900
O482        O  0.95096930  0.27817478  0.62455698    -0.56100
C483        C  0.94836876  0.16711645  0.56501087     0.76500
O484        O  0.94737462  0.20451201  0.67434748    -0.57300
C485        C  0.92947050  0.29506348  0.64913755     0.76500
C486        C  0.80744294  0.22391842  0.61397790     0.78900
Cd487      Cd  0.90338301  0.20930357  0.62274447     1.37500
O488        O  0.95546327  0.20832180  0.57259765    -0.56100
O489        O  0.83665063  0.24477082  0.59660580    -0.54900
C490        C  0.94536491  0.16225559  0.67826503     0.78800
O491        O  0.82217786  0.19350275  0.63355864    -0.57300
O492        O  0.91954216  0.14643119  0.58279409    -0.55800
O493        O  0.89275976  0.27596352  0.65754835    -0.55700
O494        O  0.91952983  0.14074725  0.65850560    -0.54900
O495        O  0.55414714  0.16129540  0.95361400    -0.56100
C496        C  0.47139811  0.13521276  0.52714101     0.76500
O497        O  0.57051149  0.01950222  0.51011322    -0.57300
C498        C  0.59211998  0.14850587  0.94199545     0.76500
C499        C  0.60914035  0.13649497  0.55443227     0.78900
Cd500      Cd  0.55466674  0.10131073  0.50059573     1.37500
O501        O  0.49076591  0.15528922  0.50298900    -0.56100
O502        O  0.62778368  0.12120965  0.52827584    -0.54900
C503        C  0.53446709  0.00697006  0.99094542     0.78800
O504        O  0.56745704  0.12861271  0.55782060    -0.57300
O505        O  0.48614246  0.09637481  0.53488429    -0.55800
O506        O  0.60947123  0.11386972  0.95567434    -0.55700
O507        O  0.51537252  0.03637789  0.97266001    -0.54900
O508        O  0.49957201  0.80514681  0.52966782    -0.56100
C509        C  0.58549345  0.82314544  0.95435504     0.76500
O510        O  0.49279709  0.83755776  0.92310251    -0.57300
C511        C  0.46298955  0.82048184  0.54204482     0.76500
C512        C  0.52289341  0.95853184  0.98858652     0.78900
Cd513      Cd  0.50492068  0.86274389  0.98108228     1.37500
O514        O  0.55946762  0.80099447  0.97360715    -0.56100
O515        O  0.54687004  0.92693603  0.50672912    -0.54900
C516        C  0.45208069  0.82581454  0.92701309     0.78800
O517        O  0.49320696  0.94410458  0.96827845    -0.57300
O518        O  0.57896417  0.86543823  0.95233500    -0.55800
O519        O  0.44752166  0.85614731  0.52856445    -0.55700
O520        O  0.43305341  0.83842358  0.95377789    -0.54900
O521        O  0.96041457  0.71092330  0.90146089    -0.56100
C522        C  0.93274208  0.79712154  0.82749218     0.76500
O523        O  0.93397078  0.70335530  0.80020591    -0.57300
C524        C  0.94761239  0.67304699  0.91323260     0.76500
C525        C  0.80437741  0.72825909  0.86542408     0.78900
Cd526      Cd  0.90062670  0.71421407  0.85570840     1.37500
O527        O  0.95133020  0.78109838  0.85358993    -0.56100
O528        O  0.83349835  0.74911428  0.88294021    -0.54900
C529        C  0.93697680  0.66085515  0.80157027     0.78800
O530        O  0.81950238  0.69927221  0.84492292    -0.57300
O531        O  0.89573093  0.77932136  0.81834841    -0.55800
O532        O  0.91273915  0.65588545  0.89978310    -0.55700
O533        O  0.91786453  0.64165155  0.82608169    -0.54900
O534        O  0.61427466  0.68011501  0.87895803    -0.56100
C535        C  0.61474992  0.79263915  0.81798504     0.76500
O536        O  0.61036379  0.75804193  0.92585305    -0.57300
C537        C  0.63366956  0.66649067  0.90551859     0.76500
C538        C  0.75543770  0.73729353  0.86851727     0.78900
Cd539      Cd  0.65888795  0.75113762  0.87682663     1.37500
O540        O  0.60497580  0.75267395  0.82733695    -0.56100
O541        O  0.72654534  0.71584373  0.85120129    -0.54900
C542        C  0.61600979  0.79965125  0.93128992     0.78800
O543        O  0.74005195  0.76694925  0.88844452    -0.57300
O544        O  0.64565187  0.81226856  0.83451978    -0.59000
O545        O  0.66850431  0.68799233  0.91502413    -0.55700
O546        O  0.64477615  0.81986425  0.91302423    -0.54900
O547        O  0.06243554  0.15670776  0.77523384    -0.56100
C548        C  0.97710909  0.13987018  0.70110025     0.76500
O549        O  0.07026604  0.12366879  0.66817592    -0.57300
C550        C  0.10091940  0.14397969  0.78593155     0.76500
C551        C  0.04173870  0.00550092  0.73698675     0.78900
Cd552      Cd  0.05900701  0.10126708  0.72706347     1.37500
O553        O  0.00409485  0.16294430  0.71901629    -0.56100
O554        O  0.02240155  0.03555473  0.75457968    -0.54900
C555        C  0.11150506  0.13403093  0.67123812     0.78800
O556        O  0.07075369  0.01934583  0.71597728    -0.57300
O557        O  0.98359414  0.09749671  0.70009360    -0.55800
O558        O  0.11872264  0.11079114  0.77073339    -0.55700
O559        O  0.13067149  0.12206740  0.69808795    -0.54900
O560        O  0.07662962  0.80554091  0.75670186    -0.56100
C561        C  0.97587029  0.81278163  0.69495068     0.76500
O562        O  0.99756942  0.83887013  0.81050917    -0.57300
C563        C  0.09560636  0.82540030  0.78110186     0.76500
C564        C  0.03111355  0.95696672  0.74090127     0.78900
Cd565      Cd  0.01443754  0.86133114  0.75234143     1.37500
O566        O  0.01348553  0.80071492  0.70757663    -0.56100
O567        O  0.05139875  0.92665761  0.72415363    -0.54900
C568        C  0.95682185  0.82821332  0.80518332     0.78800
O569        O  0.00128005  0.94337197  0.76133100    -0.57300
O570        O  0.95804233  0.84814962  0.70723788    -0.55800
O571        O  0.08112088  0.86441056  0.78864535    -0.55700
O572        O  0.94051575  0.83950870  0.77719755    -0.54900
O573        O  0.10572588  0.68657441  0.85212048    -0.56100
C574        C  0.11702159  0.79022528  0.91452082     0.76500
O575        O  0.24353532  0.76191381  0.84716415    -0.57300
C576        C  0.12668991  0.66636826  0.82871393     0.76500
C577        C  0.12698441  0.80150813  0.80321661     0.78900
Cd578      Cd  0.16245403  0.74765030  0.85722251     1.37500
O579        O  0.10836147  0.74948719  0.90635759    -0.56100
O580        O  0.14415235  0.82029310  0.82864481    -0.54900
C581        C  0.25809945  0.73120912  0.86650216     0.78800
O582        O  0.13256280  0.75935271  0.80054814    -0.57300
O583        O  0.14791011  0.80967430  0.89789122    -0.55800
O584        O  0.16667398  0.67943614  0.82251114    -0.55700
O585        O  0.22869390  0.70987153  0.88340918    -0.54900
O586        O  0.45305762  0.77459581  0.88074964    -0.56100
C587        C  0.44832719  0.66723314  0.81841922     0.76500
O588        O  0.43909830  0.70047757  0.93210606    -0.57300
C589        C  0.43112836  0.79243589  0.90474477     0.76500
C590        C  0.30679040  0.72111871  0.86905153     0.78900
Cd591      Cd  0.40297881  0.70748137  0.87733011     1.37500
O592        O  0.45856870  0.70668313  0.82867860    -0.56100
O593        O  0.33572520  0.74272710  0.85192402    -0.54900
C594        C  0.44229716  0.65798669  0.93228316     0.78800
O595        O  0.32194236  0.69065128  0.88840079    -0.57300
O596        O  0.41666396  0.64760888  0.83415092    -0.55800
O597        O  0.39333435  0.77479837  0.91215826    -0.55700
O598        O  0.42202131  0.63695232  0.90909930    -0.54900
O599        O  0.10599736  0.25336067  0.57153526    -0.56100
C600        C  0.13302678  0.16595158  0.64812422     0.76500
O601        O  0.24140234  0.26732525  0.63266053    -0.57300
C602        C  0.11667606  0.29297930  0.56197003     0.76500
C603        C  0.11678297  0.29900147  0.67565960     0.78900
Cd604      Cd  0.16012168  0.25110665  0.62076098     1.37500
O605        O  0.11139670  0.18291817  0.62364222    -0.56100
O606        O  0.14466317  0.32003201  0.65714590    -0.54900
C607        C  0.25709673  0.23712570  0.61327666     0.78800
O608        O  0.11299247  0.25713574  0.67058253    -0.57300
O609        O  0.17069524  0.18393358  0.65553003    -0.55800
O610        O  0.14874366  0.31167112  0.57785306    -0.55700
O611        O  0.22839201  0.21533334  0.59600037    -0.54900
O612        O  0.46460829  0.20489152  0.64721992    -0.56100
C613        C  0.43464653  0.29654550  0.57669744     0.76500
O614        O  0.43538586  0.20131246  0.54728119    -0.57300
C615        C  0.44771733  0.17078092  0.66199030     0.76500
C616        C  0.30614509  0.22760419  0.61094424     0.78900
Cd617      Cd  0.40277096  0.21226077  0.60322139     1.37500
O618        O  0.45531470  0.27794506  0.60095090    -0.56100
O619        O  0.33493531  0.24798726  0.62908624    -0.54900
C620        C  0.43962131  0.15894086  0.54909557     0.78800
O621        O  0.32166802  0.19842272  0.59069837    -0.57300
O622        O  0.39620578  0.28063859  0.56910132    -0.55800
O623        O  0.40946025  0.15773421  0.65121443    -0.55700
O624        O  0.42090432  0.13972113  0.57376530    -0.54900
O625        O  0.96633561  0.74871580  0.65765376    -0.56100
C626        C  0.92998967  0.65951738  0.57909378     0.76500
O627        O  0.83050304  0.76026146  0.59696135    -0.57300
C628        C  0.95368187  0.78779621  0.66722210     0.76500
C629        C  0.95831181  0.79262831  0.55559106     0.78900
Cd630      Cd  0.91166540  0.74464510  0.60882559     1.37500
O631        O  0.95046172  0.67037003  0.60593106    -0.56100
O632        O  0.92438252  0.81089806  0.56977030    -0.54900
C633        C  0.81503173  0.73044370  0.61680547     0.78800
O634        O  0.96847167  0.75311807  0.56496467    -0.57300
O635        O  0.89738269  0.68437305  0.56982755    -0.55800
O636        O  0.92049234  0.80485064  0.65158341    -0.55700
O637        O  0.84389686  0.70928237  0.63440914    -0.54900
O638        O  0.61242623  0.70528290  0.58056693    -0.56100
C639        C  0.63203812  0.78884551  0.65470758     0.76500
O640        O  0.63774686  0.69702344  0.68444225    -0.57300
C641        C  0.62243203  0.66595727  0.57000901     0.76500
C642        C  0.76596984  0.72089606  0.61944086     0.78900
Cd643      Cd  0.66890298  0.70643544  0.62804821     1.37500
O644        O  0.61275450  0.76870795  0.63053762    -0.56100
O645        O  0.73698842  0.74139871  0.60157517    -0.54900
C646        C  0.62929672  0.65534924  0.68194553     0.78800
O647        O  0.75053940  0.69184460  0.63980585    -0.57300
O648        O  0.67153578  0.77560989  0.66232490    -0.55800
O649        O  0.65522527  0.64658202  0.58468517    -0.55700
O650        O  0.64637981  0.63495404  0.65712563    -0.54900
O651        O  0.08769450  0.13757846  0.97829290    -0.56100
C652        C  0.97189327  0.14412912  0.53695480     0.76500
O653        O  0.00511370  0.15945900  0.93629061    -0.57300
C654        C  0.09672761  0.12157095  0.94952240     0.76500
C655        C  0.02412689  0.00519324  0.98835570     0.78900
Cd656      Cd  0.01135634  0.10215268  0.97964260     1.37500
O657        O  0.00249940  0.16338877  0.51987915    -0.56100
O658        O  0.05251176  0.03454056  0.50424711    -0.54900
C659        C  0.96490465  0.15148300  0.92743209     0.78800
O660        O  0.99483245  0.02053537  0.96801941    -0.57300
O661        O  0.96230664  0.10380949  0.52856300    -0.55800
O662        O  0.06969989  0.09224100  0.93777702    -0.55700
O663        O  0.94531484  0.11803371  0.94131999    -0.54900
O664        O  0.05822380  0.79806680  0.95625677    -0.56100
C665        C  0.98785102  0.81636450  0.53176189     0.76500
O666        O  0.08159548  0.85393093  0.55897958    -0.57300
C667        C  0.09308202  0.81418289  0.94196599     0.76500
C668        C  0.03439134  0.95625752  0.99110443     0.78900
Cd669      Cd  0.06257530  0.86167844  0.49964569     1.37500
O670        O  0.01795234  0.79496812  0.51560654    -0.56100
O671        O  0.01409233  0.92673703  0.97357366    -0.54900
C672        C  0.11884477  0.83436418  0.55337622     0.78800
O673        O  0.07574282  0.94307473  0.50869017    -0.57300
O674        O  0.98792585  0.85910225  0.52891174    -0.55800
O675        O  0.10664503  0.85236003  0.95254681    -0.55700
O676        O  0.13454839  0.83699712  0.52405035    -0.54900
O677        O  0.97455191  0.32593384  0.97708843    -0.56100
C678        C  0.09323929  0.31660397  0.53407330     0.76500
O679        O  0.05992542  0.30138528  0.93950764    -0.57300
C680        C  0.96584154  0.34104915  0.94803494     0.76500
C681        C  0.03697476  0.45857162  0.98750404     0.78900
Cd682      Cd  0.05027746  0.36206209  0.97909593     1.37500
O683        O  0.05796278  0.30080316  0.52011061    -0.56100
O684        O  0.01532196  0.42807320  0.50434355    -0.54900
C685        C  0.09841220  0.31186059  0.92824490     0.78800
O686        O  0.06722417  0.44320180  0.96797593    -0.57300
O687        O  0.10736569  0.35431214  0.52296639    -0.55800
O688        O  0.99277212  0.37031692  0.93608763    -0.55700
O689        O  0.11605098  0.34821103  0.93938137    -0.54900
O690        O  0.00939126  0.66234464  0.95253767    -0.56100
C691        C  0.07763309  0.64657063  0.53016489     0.76500
O692        O  0.98808909  0.61087466  0.55984535    -0.57300
C693        C  0.97120841  0.64970247  0.94119378     0.76500
C694        C  0.02754260  0.50748411  0.99033933     0.78900
Cd695      Cd  0.00205113  0.60102682  0.49976296     1.37500
O696        O  0.04594364  0.66784087  0.51565000    -0.56100
O697        O  0.04945849  0.53665451  0.97362293    -0.54900
C698        C  0.94877185  0.62669277  0.55567917     0.78800
O699        O  0.99144898  0.51935212  0.50955488    -0.57300
O700        O  0.07883057  0.60404512  0.52598787    -0.55800
O701        O  0.95385405  0.61532762  0.95517969    -0.55700
O702        O  0.93062697  0.62070868  0.52738643    -0.54900
O703        O  0.09665849  0.71129517  0.65527224    -0.56100
C704        C  0.13721033  0.80156324  0.57696570     0.76500
O705        O  0.23409605  0.70207760  0.59649024    -0.57300
C706        C  0.11019851  0.67283378  0.66553815     0.76500
C707        C  0.10719949  0.66994183  0.55408115     0.78900
Cd708      Cd  0.15315042  0.71672851  0.60769327     1.37500
O709        O  0.11697289  0.79207278  0.60418211    -0.56100
O710        O  0.14217178  0.65206756  0.56717548    -0.54900
C711        C  0.24873427  0.73161595  0.61690360     0.78800
O712        O  0.09577978  0.70846783  0.56481842    -0.57300
O713        O  0.16884090  0.77548567  0.56769816    -0.55800
O714        O  0.14440409  0.65649231  0.65066197    -0.55700
O715        O  0.21942724  0.75167383  0.63481902    -0.54900
O716        O  0.45069194  0.75968415  0.58169101    -0.56100
C717        C  0.43052727  0.67466672  0.65430210     0.76500
O718        O  0.41925514  0.76986809  0.68691941    -0.57300
C719        C  0.43916808  0.79825355  0.57043810     0.76500
C720        C  0.29739972  0.74219889  0.61972594     0.78900
Cd721      Cd  0.39366669  0.75771940  0.62879334     1.37500
O722        O  0.45099590  0.69683529  0.63171334    -0.56100
O723        O  0.32660851  0.72406553  0.60072629    -0.54900
C724        C  0.43154384  0.81032755  0.68243633     0.78800
O725        O  0.31222131  0.76988607  0.64131415    -0.57300
O726        O  0.39037369  0.68666796  0.66097625    -0.55800
O727        O  0.40553514  0.81678779  0.58470162    -0.55700
O728        O  0.41851281  0.82910682  0.65571041    -0.54900
O729        O  0.51196605  0.15464625  0.69809013    -0.56100
C730        C  0.59593166  0.13536168  0.77645354     0.76500
O731        O  0.50533820  0.13862475  0.80373203    -0.57300
C732        C  0.47087789  0.14723894  0.69019742     0.76500
C733        C  0.52774491  0.00523918  0.74037065     0.78900
Cd734      Cd  0.51302490  0.10227362  0.74859852     1.37500
O735        O  0.57706832  0.15644016  0.75248394    -0.56100
O736        O  0.54828776  0.03420026  0.72254102    -0.54900
C737        C  0.46280585  0.14152932  0.80378150     0.78800
O738        O  0.49841838  0.02065278  0.76053946    -0.57300
O739        O  0.58119525  0.09606658  0.78301043    -0.55800
O740        O  0.45041383  0.11804627  0.70783037    -0.55700
O741        O  0.44219645  0.12111160  0.78044340    -0.54900
O742        O  0.48329186  0.81058239  0.72856620    -0.56100
C743        C  0.59201848  0.81540215  0.78931959     0.76500
O744        O  0.56453435  0.82338041  0.67457389    -0.57300
C745        C  0.46622870  0.83115417  0.70365005     0.76500
C746        C  0.53748994  0.95621954  0.73780273     0.78900
Cd747      Cd  0.55224946  0.85931912  0.72978321     1.37500
O748        O  0.55666481  0.79966895  0.77541545    -0.56100
O749        O  0.51714452  0.92732097  0.75581908    -0.54900
C750        C  0.60702151  0.81994850  0.67664331     0.78800
O751        O  0.56665679  0.94076872  0.71750063    -0.57300
O752        O  0.60716348  0.85209960  0.77721694    -0.55800
O753        O  0.48550593  0.86732594  0.69443042    -0.55700
O754        O  0.62545488  0.83946625  0.70129449    -0.54900
O755        O  0.10983519  0.20249006  0.82774748    -0.56100
C756        C  0.12143404  0.28002873  0.90573865     0.76500
O757        O  0.15033438  0.17879296  0.93530100    -0.57300
C758        C  0.12366913  0.16563843  0.81491321     0.76500
C759        C  0.25958302  0.22072395  0.86870448     0.78900
Cd760      Cd  0.16405629  0.20149173  0.87645698     1.37500
O761        O  0.09930547  0.24836715  0.89196367    -0.56100
O762        O  0.22936327  0.24115086  0.85196811    -0.54900
C763        C  0.13073470  0.14217644  0.92760852     0.78800
O764        O  0.24613911  0.18935913  0.88802250    -0.57300
O765        O  0.16402439  0.27938694  0.90196694    -0.55800
O766        O  0.15799381  0.14770340  0.82863906    -0.55700
O767        O  0.13530219  0.12877657  0.89783303    -0.54900
O768        O  0.45969911  0.25731122  0.90223266    -0.56100
C769        C  0.43987513  0.17296128  0.82654868     0.76500
O770        O  0.32047968  0.26492322  0.84644885    -0.57300
C771        C  0.44594535  0.29472657  0.91422558     0.76500
C772        C  0.43521561  0.30811825  0.79925896     0.78900
Cd773      Cd  0.40269268  0.25395404  0.85491204     1.37500
O774        O  0.46157187  0.19478957  0.84878246    -0.56100
O775        O  0.42184087  0.32701133  0.82587933    -0.54900
C776        C  0.30779884  0.23306816  0.86553058     0.78800
O777        O  0.42706476  0.26640456  0.79659161    -0.57300
O778        O  0.39912610  0.18442279  0.82154225    -0.55800
O779        O  0.41148601  0.31190067  0.90016294    -0.55700
O780        O  0.33867662  0.21247025  0.88149282    -0.54900
O781        O  0.57307119  0.65739317  0.72471932    -0.56100
C782        C  0.47104452  0.64516000  0.78944611     0.76500
O783        O  0.49692559  0.63713050  0.67291644    -0.57300
C784        C  0.59484299  0.63434101  0.70325249     0.76500
C785        C  0.52474713  0.50677621  0.73538354     0.78900
Cd786      Cd  0.50935909  0.60338832  0.72854363     1.37500
O787        O  0.50530603  0.66210394  0.77489966    -0.56100
O788        O  0.54556034  0.53573262  0.75305316    -0.54900
C789        C  0.45470649  0.64232836  0.67566827     0.78800
O790        O  0.49488968  0.52202631  0.71550857    -0.57300
O791        O  0.45668443  0.60805824  0.77750049    -0.55800
O792        O  0.58068544  0.59466271  0.69741395    -0.55700
O793        O  0.43610480  0.62364596  0.70059874    -0.54900
O794        O  0.55458366  0.30597473  0.69968927    -0.56100
C795        C  0.46606788  0.33071098  0.77578527     0.76500
O796        O  0.55697774  0.32355013  0.80203676    -0.57300
C797        C  0.59449789  0.31643726  0.69058777     0.76500
C798        C  0.53471404  0.45792078  0.73822435     0.78900
Cd799      Cd  0.55015135  0.36171536  0.74805354     1.37500
O800        O  0.48508646  0.30892583  0.75221391    -0.56100
O801        O  0.51490056  0.42855239  0.72027251    -0.54900
C802        C  0.59943735  0.32476055  0.80444110     0.78800
O803        O  0.56346029  0.44312386  0.75907833    -0.57300
O804        O  0.48111686  0.37002612  0.78193645    -0.55800
O805        O  0.61291968  0.34843350  0.70673564    -0.55700
O806        O  0.62027254  0.34801106  0.78268887    -0.54900
O807        O  0.95255461  0.25865129  0.82564536    -0.56100
C808        C  0.94194338  0.18310148  0.90477433     0.76500
O809        O  0.91572758  0.28129999  0.93337983    -0.57300
C810        C  0.94016893  0.29656999  0.81371495     0.76500
C811        C  0.80347389  0.24130205  0.86723893     0.78900
Cd812      Cd  0.89913643  0.26071825  0.87484584     1.37500
O813        O  0.96427921  0.21248605  0.88855596    -0.56100
O814        O  0.83351783  0.21868740  0.85189007    -0.54900
C815        C  0.93215558  0.31962707  0.92632482     0.78800
O816        O  0.81729067  0.27431763  0.88479952    -0.57300
O817        O  0.89918254  0.18580950  0.90329975    -0.55800
O818        O  0.90703352  0.31558358  0.82816921    -0.55700
O819        O  0.92473715  0.33441869  0.89721968    -0.54900
O820        O  0.60103068  0.20905751  0.90164487    -0.56100
C821        C  0.62245474  0.29429184  0.82779557     0.76500
O822        O  0.74097814  0.19858345  0.84552598    -0.57300
C823        C  0.61518570  0.17196630  0.91389770     0.76500
C824        C  0.62644059  0.15843498  0.79982195     0.78900
Cd825      Cd  0.65920863  0.21263211  0.85507324     1.37500
O826        O  0.60009415  0.27082956  0.84867718    -0.56100
O827        O  0.63837953  0.14020186  0.82701733    -0.54900
C828        C  0.75494631  0.22998893  0.86453102     0.78800
O829        O  0.63595638  0.19978902  0.79636604    -0.57300
O830        O  0.66397590  0.28472953  0.82427254    -0.55800
O831        O  0.65057124  0.15562136  0.90060587    -0.55700
O832        O  0.72499899  0.25142680  0.88087054    -0.54900
loop_ 
_geom_bond_atom_site_label_1 
_geom_bond_atom_site_label_2 
_geom_bond_distance 
_geom_bond_site_symmetry_2 
_ccdc_geom_bond_type 
O1            C4   1.271       .  A
O1           Cd6   2.478       .  S
C2           O11   1.266       .  A
C2            O7   1.266       .  A
C2          C355   1.488       .  S
O3            C9   1.257       .  A
O3           Cd6   2.458       .  S
C4           O12   1.263       .  A
C4           C61   1.463       .  S
C5            O8   1.267       .  A
C5          O426   1.267       .  A
C5           C18   1.474       .  S
Cd6          O13   2.493       .  S
Cd6          O12   2.434       .  S
Cd6          O10   2.478       .  S
Cd6         O427   2.500   1_554  S
Cd6         O423   2.527   1_554  S
Cd6         O424   2.462   1_554  S
O7         Cd422   2.538       .  S
O8         Cd422   2.475       .  S
C9           O13   1.265       .  A
C9          C197   1.462       .  S
O10         C421   1.267   1_554  A
O11        Cd422   2.509       .  S
O14          C17   1.268       .  A
O14        Cd435   2.520   1_554  S
C15          O24   1.263       .  A
C15          O20   1.266       .  A
C15         C178   1.466       .  S
O16          C22   1.260       .  A
O16         Cd19   2.483       .  S
C17          O25   1.267       .  A
C17         C225   1.485       .  S
C18          O23   1.267       .  A
C18         O437   1.268       .  A
Cd19         O26   2.463       .  S
Cd19         O24   2.496       .  S
Cd19         O20   2.444       .  S
Cd19         O23   2.467       .  S
Cd19        O430   2.533       .  S
Cd19        O441   2.502       .  S
Cd19        O437   2.485       .  S
O21         C434   1.267   1_554  A
O21        Cd435   2.466   1_554  S
C22          O26   1.263       .  A
C22         C121   1.463       .  S
O25        Cd435   2.498   1_554  S
O27          C30   1.267   1_455  A
O27         Cd32   2.526       .  S
C28          O37   1.264       .  A
C28          O33   1.271       .  A
C28         C187   1.464       .  S
O29          C35   1.257   1_455  A
O29         Cd32   2.404       .  S
C30          O38   1.266       .  A
C30         C394   1.486       .  S
C31          O36   1.267       .  A
C31          O34   1.269       .  A
C31          C44   1.472       .  S
Cd32         O39   2.538   1_455  S
Cd32         O38   2.510   1_455  S
Cd32         O37   2.437       .  S
Cd32         O33   2.477       .  S
Cd32         O36   2.465       .  S
Cd32         O34   2.484       .  S
C35          O39   1.269       .  A
C35          C69   1.463       .  S
O40          C43   1.272       .  A
O40         Cd45   2.498   1_655  S
C41          O50   1.266       .  A
C41          O46   1.269       .  A
C41         C290   1.491       .  S
O42          C48   1.256       .  A
O42         Cd45   2.450       .  S
C43          O51   1.262       .  A
C43         C113   1.467       .  S
C44          O49   1.266       .  A
C44          O47   1.267       .  A
Cd45         O52   2.499       .  S
Cd45         O51   2.439   1_455  S
Cd45         O50   2.507       .  S
Cd45         O46   2.546       .  S
Cd45         O49   2.482       .  S
Cd45         O47   2.469       .  S
C48          O52   1.265       .  A
C48         C160   1.460       .  S
O53          C56   1.268       .  A
O53         Cd58   2.530       .  S
C54          O63   1.263       .  A
C54          O59   1.269       .  A
C54          C83   1.463       .  S
O55          C61   1.258       .  A
O55         Cd58   2.475       .  S
C56          O64   1.266       .  A
C56         C381   1.485       .  S
C57          O62   1.266       .  A
C57          O60   1.268       .  A
C57          C70   1.473       .  S
Cd58         O65   2.479       .  S
Cd58         O64   2.492       .  S
Cd58         O63   2.454       .  S
Cd58         O59   2.459       .  S
Cd58         O62   2.465       .  S
Cd58         O60   2.489       .  S
C61          O65   1.264       .  A
O66          C69   1.264       .  A
O66         Cd71   2.418       .  S
C67          O76   1.266       .  A
C67          O72   1.267       .  A
C67         C236   1.485       .  S
O68          C74   1.260       .  A
O68         Cd71   2.468       .  S
C69          O77   1.265       .  A
C70          O75   1.267       .  A
C70          O73   1.267       .  A
Cd71         O78   2.465       .  S
Cd71         O77   2.504       .  S
Cd71         O76   2.498       .  S
Cd71         O72   2.531       .  S
Cd71         O75   2.487       .  S
Cd71         O73   2.469       .  S
C74          O78   1.265       .  A
C74         C132   1.461       .  S
O79          C82   1.266       .  A
O79        Cd500   2.528       .  S
C80          O89   1.263       .  A
C80          O85   1.271       .  A
C80         C204   1.460       .  S
O81         C503   1.267   1_554  A
O81         Cd84   2.471   1_554  S
C82          O90   1.267       .  A
C82         C407   1.486       .  S
C83          O88   1.257       .  A
C83          O86   1.266       .  A
Cd84         O89   2.420   1_556  S
Cd84         O85   2.471   1_556  S
Cd84         O88   2.450   1_556  S
Cd84         O86   2.508   1_556  S
Cd84        O495   2.530       .  S
Cd84        O507   2.469       .  S
Cd84        O506   2.489       .  S
C87          O91   1.266       .  A
C87         O497   1.268       .  A
C87          C96   1.470   1_545  S
O90        Cd500   2.510       .  S
O91        Cd500   2.459       .  S
O92          C95   1.268       .  A
O92        Cd513   2.509   1_554  S
C93         O102   1.262       .  A
C93          O98   1.269       .  A
C93         C126   1.463       .  S
O94         C100   1.257       .  A
O94         Cd97   2.462       .  S
C95         O103   1.266       .  A
C95         C303   1.481       .  S
C96         O101   1.267       .  A
C96         O515   1.267       .  A
Cd97        O104   2.486       .  S
Cd97        O102   2.460       .  S
Cd97         O98   2.460       .  S
Cd97        O101   2.455       .  S
Cd97        O508   2.536       .  S
Cd97        O519   2.501       .  S
Cd97        O515   2.479       .  S
O99         C512   1.266   1_554  A
O99        Cd513   2.468   1_554  S
C100        O104   1.264       .  A
C100        C173   1.461       .  S
O103       Cd513   2.494   1_554  S
O105        C108   1.269       .  A
O105       Cd110   2.528       .  S
C106        O115   1.262       .  A
C106        O111   1.271       .  A
C106        C152   1.462       .  S
O107        C113   1.257       .  A
O107       Cd110   2.483       .  S
C108        O116   1.267       .  A
C108        C277   1.487       .  S
C109        O114   1.268       .  A
C109        O112   1.266       .  A
C109        C122   1.469       .  S
Cd110       O117   2.490       .  S
Cd110       O116   2.501       .  S
Cd110       O115   2.431       .  S
Cd110       O111   2.472       .  S
Cd110       O114   2.466       .  S
Cd110       O112   2.469       .  S
C113        O117   1.265       .  A
O118        C121   1.273       .  A
O118       Cd123   2.480       .  S
C119        O128   1.265       .  A
C119        O124   1.269       .  A
C119        C327   1.485       .  S
O120        C126   1.256       .  A
O120       Cd123   2.436       .  S
C121        O129   1.264       .  A
C122        O127   1.268       .  A
C122        O125   1.266       .  A
Cd123       O130   2.519       .  S
Cd123       O129   2.423       .  S
Cd123       O128   2.496       .  S
Cd123       O124   2.527       .  S
Cd123       O127   2.474       .  S
Cd123       O125   2.455       .  S
C126        O130   1.268       .  A
O131        C134   1.268       .  A
O131       Cd136   2.517       .  S
C132        O141   1.264       .  A
C132        O137   1.272       .  A
O133        C139   1.257       .  A
O133       Cd136   2.392       .  S
C134        O142   1.266       .  A
C134        C342   1.483       .  S
C135        O140   1.268       .  A
C135        O138   1.269       .  A
C135        C148   1.472   1_545  S
Cd136       O143   2.540       .  S
Cd136       O142   2.498       .  S
Cd136       O141   2.426   1_455  S
Cd136       O137   2.469   1_455  S
Cd136       O140   2.459       .  S
Cd136       O138   2.479       .  S
C139        O143   1.270       .  A
C139        C184   1.462       .  S
O144        C147   1.270       .  A
O144       Cd149   2.481       .  S
C145        O154   1.266       .  A
C145        O150   1.269   1_655  A
C145        C212   1.487       .  S
O146        C152   1.257       .  A
O146       Cd149   2.469   1_655  S
C147        O155   1.262       .  A
C147        C161   1.465       .  S
C148        O153   1.266   1_455  A
C148        O151   1.266       .  A
Cd149       O156   2.484   1_455  S
Cd149       O155   2.443       .  S
Cd149       O154   2.495   1_455  S
Cd149       O150   2.536       .  S
Cd149       O153   2.487   1_455  S
Cd149       O151   2.467       .  S
C152        O156   1.264       .  A
O157        C160   1.270       .  A
O157       Cd162   2.453       .  S
C158        O167   1.266       .  A
C158        O163   1.269       .  A
C158        C251   1.481       .  S
O159        C165   1.268       .  A
O159       Cd162   2.462       .  S
C160        O168   1.263       .  A
C161        O166   1.258       .  A
C161        O164   1.264       .  A
Cd162       O169   2.469       .  S
Cd162       O168   2.445       .  S
Cd162       O167   2.476       .  S
Cd162       O163   2.523       .  S
Cd162       O166   2.477       .  S
Cd162       O164   2.484       .  S
C165        O169   1.267       .  A
C165        C174   1.469       .  S
O170        C173   1.271       .  A
O170       Cd175   2.457       .  S
C171        O180   1.265       .  A
C171        O176   1.269       .  A
C171        C366   1.485       .  S
O172        C178   1.258       .  A
O172       Cd175   2.418       .  S
C173        O181   1.264       .  A
C174        O179   1.269       .  A
C174        O177   1.267       .  A
Cd175       O182   2.533       .  S
Cd175       O181   2.436       .  S
Cd175       O180   2.492       .  S
Cd175       O176   2.524       .  S
Cd175       O179   2.475       .  S
Cd175       O177   2.459       .  S
C178        O182   1.270       .  A
O183        C186   1.267       .  A
O183       Cd188   2.531       .  S
C184        O193   1.265       .  A
C184        O189   1.265       .  A
O185        C191   1.267       .  A
O185       Cd188   2.466       .  S
C186        O194   1.265       .  A
C186        C262   1.484       .  S
C187        O192   1.260       .  A
C187        O190   1.265       .  A
Cd188       O195   2.474       .  S
Cd188       O194   2.497       .  S
Cd188       O193   2.501       .  S
Cd188       O189   2.412       .  S
Cd188       O192   2.472       .  S
Cd188       O190   2.474       .  S
C191        O195   1.267       .  A
C191        C200   1.470       .  S
O196        C199   1.268       .  A
O196       Cd201   2.520       .  S
C197        O206   1.263       .  A
C197        O202   1.269       .  A
O198        C204   1.258       .  A
O198       Cd201   2.469       .  S
C199        O207   1.266       .  A
C199        C316   1.484       .  S
C200        O205   1.267       .  A
C200        O203   1.266       .  A
Cd201       O208   2.471       .  S
Cd201       O207   2.494       .  S
Cd201       O206   2.443       .  S
Cd201       O202   2.468       .  S
Cd201       O205   2.477       .  S
Cd201       O203   2.466       .  S
C204        O208   1.264       .  A
O209        C212   1.269       .  A
O209       Cd214   2.540       .  S
C210        O219   1.263       .  A
C210        O215   1.271       .  A
C210        C282   1.461       .  S
O211        C217   1.266       .  A
O211       Cd214   2.458       .  S
C212        O220   1.265       .  A
C213        O218   1.257       .  A
C213        O216   1.264       .  A
C213        C249   1.460       .  S
Cd214       O221   2.474       .  S
Cd214       O220   2.493       .  S
Cd214       O219   2.441       .  S
Cd214       O215   2.455       .  S
Cd214       O218   2.477       .  S
Cd214       O216   2.471       .  S
C217        O221   1.267       .  A
C217        C226   1.469       .  S
O222        C225   1.269       .  A
O222       Cd227   2.533       .  S
C223        O232   1.264       .  A
C223        O228   1.272       .  A
C223        C334   1.462       .  S
O224        C230   1.257       .  A
O224       Cd227   2.462       .  S
C225        O233   1.265       .  A
C226        O231   1.266       .  A
C226        O229   1.265       .  A
Cd227       O234   2.501       .  S
Cd227       O233   2.494       .  S
Cd227       O232   2.422       .  S
Cd227       O228   2.481       .  S
Cd227       O231   2.482       .  S
Cd227       O229   2.466       .  S
C230        O234   1.266       .  A
C230        C368   1.464       .  S
O235        C238   1.269       .  A
O235       Cd240   2.453       .  S
C236        O245   1.265       .  A
C236        O241   1.269   1_655  A
O237        C243   1.256   1_455  A
O237       Cd240   2.444       .  S
C238        O246   1.263       .  A
C238        C347   1.458       .  S
C239        O244   1.267       .  A
C239        O658   1.267       .  A
C239        C252   1.466   1_545  S
Cd240       O247   2.499   1_455  S
Cd240       O246   2.430       .  S
Cd240       O244   2.460       .  S
Cd240       O661   2.501   1_455  S
Cd240       O657   2.521       .  S
Cd240       O658   2.457       .  S
O241       Cd656   2.532   1_554  S
O242        C655   1.267   1_554  A
O242       Cd656   2.470   1_554  S
C243        O247   1.266       .  A
C243        C392   1.462       .  S
O245       Cd656   2.493   1_654  S
O248        C251   1.269       .  A
O248       Cd669   2.521       .  S
C249        O258   1.262       .  A
C249        O254   1.271       .  A
O250        C256   1.256       .  A
O250       Cd253   2.448   1_554  S
C251        O259   1.266       .  A
C252        O255   1.267       .  A
C252        O673   1.266       .  A
Cd253       O260   2.514   1_556  S
Cd253       O258   2.415   1_456  S
Cd253       O254   2.481   1_456  S
Cd253       O257   2.478   1_556  S
Cd253       O664   2.525       .  S
Cd253       O675   2.492       .  S
Cd253       O671   2.494       .  S
O255       Cd669   2.464       .  S
C256        O260   1.266       .  A
C256        C288   1.464       .  S
O257        C668   1.268   1_554  A
O259       Cd669   2.482       .  S
O261        C264   1.270       .  A
O261       Cd266   2.489   1_655  S
C262        O271   1.265       .  A
C262        O267   1.268       .  A
O263        C269   1.258       .  A
O263       Cd266   2.457       .  S
C264        O272   1.262       .  A
C264        C399   1.463       .  S
C265        O270   1.266       .  A
C265        O684   1.267       .  A
C265        C278   1.469       .  S
Cd266       O273   2.474       .  S
Cd266       O272   2.427   1_455  S
Cd266       O270   2.475       .  S
Cd266       O687   2.497       .  S
Cd266       O683   2.526       .  S
Cd266       O684   2.466       .  S
O267       Cd682   2.525   1_554  S
O268        C681   1.267   1_554  A
O268       Cd682   2.466   1_554  S
C269        O273   1.264       .  A
C269        C340   1.459       .  S
O271       Cd682   2.488   1_554  S
O274        C277   1.269   1_455  A
O274       Cd695   2.530       .  S
C275        O284   1.263       .  A
C275        O280   1.272       .  A
C275        C291   1.458       .  S
O276        C282   1.256   1_455  A
O276       Cd279   2.452   1_554  S
C277        O285   1.266       .  A
C278        O281   1.267       .  A
C278        O699   1.265   1_455  A
Cd279       O286   2.506   1_456  S
Cd279       O284   2.415   1_556  S
Cd279       O280   2.471   1_556  S
Cd279       O283   2.471   1_456  S
Cd279       O690   2.544       .  S
Cd279       O701   2.489   1_455  S
Cd279       O697   2.477       .  S
O281       Cd695   2.477       .  S
C282        O286   1.266       .  A
O283        C694   1.267   1_654  A
O285       Cd695   2.503   1_655  S
O287        C290   1.269       .  A
O287       Cd292   2.540       .  S
C288        O297   1.263       .  A
C288        O293   1.270       .  A
O289        C295   1.266       .  A
O289       Cd292   2.460       .  S
C290        O298   1.266       .  A
C291        O296   1.257       .  A
C291        O294   1.264       .  A
Cd292       O299   2.457       .  S
Cd292       O298   2.509       .  S
Cd292       O297   2.459       .  S
Cd292       O293   2.457       .  S
Cd292       O296   2.461       .  S
Cd292       O294   2.471       .  S
C295        O299   1.266       .  A
C295        C304   1.465       .  S
O300        C303   1.269       .  A
O300       Cd305   2.513       .  S
C301        O310   1.263       .  A
C301        O306   1.271       .  A
C301        C373   1.460       .  S
O302        C308   1.257       .  A
O302       Cd305   2.470       .  S
C303        O311   1.265       .  A
C304        O309   1.267       .  A
C304        O307   1.266       .  A
Cd305       O312   2.480       .  S
Cd305       O311   2.488       .  S
Cd305       O310   2.424       .  S
Cd305       O306   2.471       .  S
Cd305       O309   2.456       .  S
Cd305       O307   2.455       .  S
C308        O312   1.264       .  A
C308        C329   1.462       .  S
O313        C316   1.268       .  A
O313       Cd318   2.524       .  S
C314        O323   1.264       .  A
C314        O319   1.265       .  A
C314        C408   1.465       .  S
O315        C321   1.260       .  A
O315       Cd318   2.475       .  S
C316        O324   1.265       .  A
C317        O322   1.266       .  A
C317        O320   1.267       .  A
C317        C330   1.469   1_545  S
Cd318       O325   2.466       .  S
Cd318       O324   2.493       .  S
Cd318       O323   2.496       .  S
Cd318       O319   2.435       .  S
Cd318       O322   2.458       .  S
Cd318       O320   2.480       .  S
C321        O325   1.264       .  A
C321        C353   1.463       .  S
O326        C329   1.269       .  A
O326       Cd331   2.476       .  S
C327        O336   1.267       .  A
C327        O332   1.268       .  A
O328        C334   1.258       .  A
O328       Cd331   2.477       .  S
C329        O337   1.262       .  A
C330        O335   1.266       .  A
C330        O333   1.266       .  A
Cd331       O338   2.468       .  S
Cd331       O337   2.442       .  S
Cd331       O336   2.501       .  S
Cd331       O332   2.521       .  S
Cd331       O335   2.478       .  S
Cd331       O333   2.463       .  S
C334        O338   1.264       .  A
O339        C342   1.267       .  A
O339       Cd344   2.520       .  S
C340        O349   1.263       .  A
C340        O345   1.269       .  A
O341        C347   1.257       .  A
O341       Cd344   2.451       .  S
C342        O350   1.266       .  A
C343        O348   1.266       .  A
C343        O346   1.267       .  A
C343        C360   1.468       .  S
Cd344       O351   2.484       .  S
Cd344       O350   2.502       .  S
Cd344       O349   2.434       .  S
Cd344       O345   2.466       .  S
Cd344       O348   2.461       .  S
Cd344       O346   2.468       .  S
C347        O351   1.264       .  A
O352        C355   1.270       .  A
O352       Cd357   2.540       .  S
C353        O362   1.264       .  A
C353        O358   1.272       .  A
O354        C360   1.267       .  A
O354       Cd357   2.462       .  S
C355        O363   1.265       .  A
C356        O361   1.259       .  A
C356        O359   1.269       .  A
C356        C379   1.464       .  S
Cd357       O364   2.469       .  S
Cd357       O363   2.492       .  S
Cd357       O362   2.429       .  S
Cd357       O358   2.480       .  S
Cd357       O361   2.408       .  S
Cd357       O359   2.520       .  S
C360        O364   1.268       .  A
O365        C368   1.268       .  A
O365       Cd370   2.468       .  S
C366        O375   1.266       .  A
C366        O371   1.266       .  A
O367        C373   1.257       .  A
O367       Cd370   2.464       .  S
C368        O376   1.263       .  A
C369        O374   1.267       .  A
C369        O372   1.268       .  A
C369        C382   1.475       .  S
Cd370       O377   2.474       .  S
Cd370       O376   2.455       .  S
Cd370       O375   2.509       .  S
Cd370       O371   2.525       .  S
Cd370       O374   2.487       .  S
Cd370       O372   2.476       .  S
C373        O377   1.265       .  A
O378        C381   1.268       .  A
O378       Cd383   2.534       .  S
C379        O388   1.265       .  A
C379        O384   1.264       .  A
O380        C386   1.261       .  A
O380       Cd383   2.478       .  S
C381        O389   1.265       .  A
C382        O387   1.266       .  A
C382        O385   1.268       .  A
Cd383       O390   2.467       .  S
Cd383       O389   2.490       .  S
Cd383       O388   2.504       .  S
Cd383       O384   2.432       .  S
Cd383       O387   2.477       .  S
Cd383       O385   2.495       .  S
C386        O390   1.264       .  A
C386        C405   1.465       .  S
O391        C394   1.268       .  A
O391       Cd396   2.529       .  S
C392        O401   1.263       .  A
C392        O397   1.268       .  A
O393        C399   1.259       .  A
O393       Cd396   2.488       .  S
C394        O402   1.265       .  A
C395        O400   1.266       .  A
C395        O398   1.268       .  A
C395        C412   1.474       .  S
Cd396       O403   2.466       .  S
Cd396       O402   2.504       .  S
Cd396       O401   2.463       .  S
Cd396       O397   2.457       .  S
Cd396       O400   2.469       .  S
Cd396       O398   2.488       .  S
C399        O403   1.263       .  A
O404        C407   1.269       .  A
O404       Cd409   2.535       .  S
C405        O414   1.265       .  A
C405        O410   1.272       .  A
O406        C412   1.267       .  A
O406       Cd409   2.486       .  S
C407        O415   1.265       .  A
C408        O413   1.259       .  A
C408        O411   1.270       .  A
Cd409       O416   2.475       .  S
Cd409       O415   2.493       .  S
Cd409       O414   2.433       .  S
Cd409       O410   2.481       .  S
Cd409       O413   2.417       .  S
Cd409       O411   2.525       .  S
C412        O416   1.267       .  A
O417        C420   1.269       .  A
O417       Cd422   2.461       .  S
C418        O427   1.266       .  A
C418        O423   1.269       .  A
C418        C771   1.487       .  S
O419        C425   1.257       .  A
O419       Cd422   2.469       .  S
C420        O428   1.263       .  A
C420        C477   1.464       .  S
C421        O424   1.266       .  A
C421        C434   1.469       .  S
Cd422       O429   2.489       .  S
Cd422       O428   2.460       .  S
Cd422       O426   2.485       .  S
C425        O429   1.265       .  A
C425        C613   1.464       .  S
O430        C433   1.268       .  A
C431        O440   1.261       .  A
C431        O436   1.268       .  A
C431        C594   1.459       .  S
O432        C438   1.258       .  A
O432       Cd435   2.472       .  S
C433        O441   1.265       .  A
C433        C641   1.487       .  S
C434        O439   1.267       .  A
Cd435       O442   2.474       .  S
Cd435       O440   2.447       .  S
Cd435       O436   2.457       .  S
Cd435       O439   2.459       .  S
C438        O442   1.264       .  A
C438        C537   1.461       .  S
O443        C446   1.268   1_455  A
O443       Cd448   2.528       .  S
C444        O453   1.264       .  A
C444        O449   1.268       .  A
C444        C603   1.467       .  S
O445        C451   1.259       .  A
O445       Cd448   2.467   1_655  S
C446        O454   1.265       .  A
C446        C810   1.482       .  S
C447        O452   1.267   1_455  A
C447        O450   1.267       .  A
C447        C460   1.472       .  S
Cd448       O455   2.473   1_455  S
Cd448       O454   2.486   1_455  S
Cd448       O453   2.486       .  S
Cd448       O449   2.448       .  S
Cd448       O452   2.473   1_455  S
Cd448       O450   2.471       .  S
C451        O455   1.264       .  A
C451        C485   1.461       .  S
O456        C459   1.269       .  A
O456       Cd461   2.451   1_655  S
C457        O466   1.266       .  A
C457        O462   1.267       .  A
C457        C706   1.485       .  S
O458        C464   1.257       .  A
O458       Cd461   2.460       .  S
C459        O467   1.264       .  A
C459        C529   1.460       .  S
C460        O465   1.266       .  A
C460        O463   1.266       .  A
Cd461       O468   2.498       .  S
Cd461       O467   2.448   1_455  S
Cd461       O466   2.495       .  S
Cd461       O462   2.529       .  S
Cd461       O465   2.481       .  S
Cd461       O463   2.479       .  S
C464        O468   1.265       .  A
C464        C576   1.463       .  S
O469        C472   1.268       .  A
O469       Cd474   2.536       .  S
C470        O479   1.263       .  A
C470        O475   1.271       .  A
C470        C499   1.462       .  S
O471        C477   1.256       .  A
O471       Cd474   2.451       .  S
C472        O480   1.266       .  A
C472        C797   1.490       .  S
C473        O478   1.267       .  A
C473        O476   1.266       .  A
C473        C486   1.468       .  S
Cd474       O481   2.512       .  S
Cd474       O480   2.510       .  S
Cd474       O479   2.435       .  S
Cd474       O475   2.470       .  S
Cd474       O478   2.465       .  S
Cd474       O476   2.470       .  S
C477        O481   1.266       .  A
O482        C485   1.272       .  A
O482       Cd487   2.467       .  S
C483        O492   1.265       .  A
C483        O488   1.269       .  A
C483        C652   1.484       .  S
O484        C490   1.256       .  A
O484       Cd487   2.443       .  S
C485        O493   1.264       .  A
C486        O491   1.267       .  A
C486        O489   1.265       .  A
Cd487       O494   2.521       .  S
Cd487       O493   2.428       .  S
Cd487       O492   2.493       .  S
Cd487       O488   2.527       .  S
Cd487       O491   2.475       .  S
Cd487       O489   2.459       .  S
C490        O494   1.267       .  A
C490        C548   1.465       .  S
O495        C498   1.269       .  A
C496        O505   1.262       .  A
C496        O501   1.269       .  A
C496        C620   1.462       .  S
O497       Cd500   2.484       .  S
C498        O506   1.266       .  A
C498        C823   1.485       .  S
C499        O504   1.257       .  A
C499        O502   1.265       .  A
Cd500       O505   2.445       .  S
Cd500       O501   2.466       .  S
Cd500       O504   2.458       .  S
Cd500       O502   2.492       .  S
C503        O507   1.266       .  A
C503        C512   1.470   1_545  S
O508        C511   1.269       .  A
C509        O518   1.263       .  A
C509        O514   1.268       .  A
C509        C542   1.463       .  S
O510        C516   1.258       .  A
O510       Cd513   2.463       .  S
C511        O519   1.266       .  A
C511        C719   1.488       .  S
C512        O517   1.267       .  A
Cd513       O520   2.488       .  S
Cd513       O518   2.467       .  S
Cd513       O514   2.445       .  S
Cd513       O517   2.475       .  S
C516        O520   1.265       .  A
C516        C589   1.464       .  S
O521        C524   1.269       .  A
O521       Cd526   2.543       .  S
C522        O531   1.264       .  A
C522        O527   1.271       .  A
C522        C568   1.463       .  S
O523        C529   1.256       .  A
O523       Cd526   2.451       .  S
C524        O532   1.265       .  A
C524        C693   1.486       .  S
C525        O530   1.266       .  A
C525        O528   1.267       .  A
C525        C538   1.471       .  S
Cd526       O533   2.497       .  S
Cd526       O532   2.489       .  S
Cd526       O531   2.437       .  S
Cd526       O527   2.474       .  S
Cd526       O530   2.467       .  S
Cd526       O528   2.481       .  S
C529        O533   1.265       .  A
O534        C537   1.272       .  A
O534       Cd539   2.472       .  S
C535        O544   1.265       .  A
C535        O540   1.268       .  A
C535        C743   1.488       .  S
O536        C542   1.256       .  A
O536       Cd539   2.437       .  S
C537        O545   1.264       .  A
C538        O543   1.267       .  A
C538        O541   1.266       .  A
Cd539       O546   2.524       .  S
Cd539       O545   2.425       .  S
Cd539       O544   2.503       .  S
Cd539       O540   2.540       .  S
Cd539       O543   2.479       .  S
Cd539       O541   2.471       .  S
C542        O546   1.268       .  A
O547        C550   1.268       .  A
O547       Cd552   2.529       .  S
C548        O557   1.263       .  A
C548        O553   1.268   1_655  A
O549        C555   1.258       .  A
O549       Cd552   2.471       .  S
C550        O558   1.265       .  A
C550        C758   1.484       .  S
C551        O556   1.267       .  A
C551        O554   1.267       .  A
C551        C564   1.472   1_545  S
Cd552       O559   2.485       .  S
Cd552       O558   2.496       .  S
Cd552       O557   2.472   1_455  S
Cd552       O553   2.454       .  S
Cd552       O556   2.478       .  S
Cd552       O554   2.475       .  S
C555        O559   1.264       .  A
C555        C600   1.464       .  S
O560        C563   1.269       .  A
O560       Cd565   2.467       .  S
C561        O570   1.266       .  A
C561        O566   1.268   1_655  A
C561        C628   1.484       .  S
O562        C568   1.259       .  A
O562       Cd565   2.472   1_655  S
C563        O571   1.262       .  A
C563        C577   1.461       .  S
C564        O569   1.266       .  A
C564        O567   1.266       .  A
Cd565       O572   2.479   1_455  S
Cd565       O571   2.445       .  S
Cd565       O570   2.484   1_455  S
Cd565       O566   2.530       .  S
Cd565       O569   2.474       .  S
Cd565       O567   2.482       .  S
C568        O572   1.264       .  A
O573        C576   1.270       .  A
O573       Cd578   2.464       .  S
C574        O583   1.265       .  A
C574        O579   1.270       .  A
C574        C667   1.484       .  S
O575        C581   1.266       .  A
O575       Cd578   2.458       .  S
C576        O584   1.264       .  A
C577        O582   1.257       .  A
C577        O580   1.264       .  A
Cd578       O585   2.479       .  S
Cd578       O584   2.446       .  S
Cd578       O583   2.485       .  S
Cd578       O579   2.532       .  S
Cd578       O582   2.458       .  S
Cd578       O580   2.486       .  S
C581        O585   1.266       .  A
C581        C590   1.468       .  S
O586        C589   1.271       .  A
O586       Cd591   2.470       .  S
C587        O596   1.265       .  A
C587        O592   1.269       .  A
C587        C782   1.489       .  S
O588        C594   1.255       .  A
O588       Cd591   2.446       .  S
C589        O597   1.264       .  A
C590        O595   1.267       .  A
C590        O593   1.266       .  A
Cd591       O598   2.500       .  S
Cd591       O597   2.441       .  S
Cd591       O596   2.503       .  S
Cd591       O592   2.545       .  S
Cd591       O595   2.477       .  S
Cd591       O593   2.457       .  S
C594        O598   1.266       .  A
O599        C602   1.268       .  A
O599       Cd604   2.536       .  S
C600        O609   1.265       .  A
C600        O605   1.271       .  A
O601        C607   1.268       .  A
O601       Cd604   2.487       .  S
C602        O610   1.265       .  A
C602        C678   1.486       .  S
C603        O608   1.255       .  A
C603        O606   1.268       .  A
Cd604       O611   2.477       .  S
Cd604       O610   2.499       .  S
Cd604       O609   2.439       .  S
Cd604       O605   2.471       .  S
Cd604       O608   2.437       .  S
Cd604       O606   2.540       .  S
C607        O611   1.267       .  A
C607        C616   1.474       .  S
O612        C615   1.268       .  A
O612       Cd617   2.543       .  S
C613        O622   1.262       .  A
C613        O618   1.270       .  A
O614        C620   1.256       .  A
O614       Cd617   2.459       .  S
C615        O623   1.266       .  A
C615        C732   1.491       .  S
C616        O621   1.267       .  A
C616        O619   1.268       .  A
Cd617       O624   2.498       .  S
Cd617       O623   2.512       .  S
Cd617       O622   2.442       .  S
Cd617       O618   2.479       .  S
Cd617       O621   2.474       .  S
Cd617       O619   2.484       .  S
C620        O624   1.265       .  A
O625        C628   1.269       .  A
O625       Cd630   2.536       .  S
C626        O635   1.263       .  A
C626        O631   1.273       .  A
C626        C698   1.456       .  S
O627        C633   1.269       .  A
O627       Cd630   2.480       .  S
C628        O636   1.265       .  A
C629        O634   1.259       .  A
C629        O632   1.269       .  A
C629        C665   1.468       .  S
Cd630       O637   2.473       .  S
Cd630       O636   2.479       .  S
Cd630       O635   2.402       .  S
Cd630       O631   2.471       .  S
Cd630       O634   2.439       .  S
Cd630       O632   2.529       .  S
C633        O637   1.268       .  A
C633        C642   1.476       .  S
O638        C641   1.268       .  A
O638       Cd643   2.526       .  S
C639        O648   1.264       .  A
C639        O644   1.269       .  A
C639        C750   1.468       .  S
O640        C646   1.257       .  A
O640       Cd643   2.453       .  S
C641        O649   1.266       .  A
C642        O647   1.266       .  A
C642        O645   1.267       .  A
Cd643       O650   2.496       .  S
Cd643       O649   2.507       .  S
Cd643       O648   2.458       .  S
Cd643       O644   2.472       .  S
Cd643       O647   2.487       .  S
Cd643       O645   2.491       .  S
C646        O650   1.266       .  A
C646        C784   1.463       .  S
O651        C654   1.273       .  A
O651       Cd656   2.479       .  S
C652        O661   1.266       .  A
C652        O657   1.266   1_655  A
O653        C659   1.258   1_455  A
O653       Cd656   2.428       .  S
C654        O662   1.265       .  A
C654        C763   1.463       .  S
C655        O660   1.269   1_455  A
C655        C668   1.477   1_545  S
Cd656       O663   2.521   1_455  S
Cd656       O662   2.418       .  S
Cd656       O660   2.497   1_455  S
C659        O663   1.270       .  A
C659        C808   1.466       .  S
O664        C667   1.268       .  A
C665        O674   1.264       .  A
C665        O670   1.266   1_655  A
O666        C672   1.259       .  A
O666       Cd669   2.452       .  S
C667        O675   1.266       .  A
C668        O671   1.267       .  A
Cd669       O676   2.445       .  S
Cd669       O674   2.493   1_455  S
Cd669       O670   2.449       .  S
Cd669       O673   2.456       .  S
C672        O676   1.265       .  A
C672        C704   1.455       .  S
O677        C680   1.272       .  A
O677       Cd682   2.472   1_655  S
C678        O687   1.267       .  A
C678        O683   1.268       .  A
O679        C685   1.258       .  A
O679       Cd682   2.406       .  S
C680        O688   1.265       .  A
C680        C815   1.462       .  S
C681        O686   1.269       .  A
C681        C694   1.472       .  S
Cd682       O689   2.539       .  S
Cd682       O688   2.428   1_455  S
Cd682       O686   2.482       .  S
C685        O689   1.271       .  A
C685        C756   1.467       .  S
O690        C693   1.269   1_455  A
C691        O700   1.264       .  A
C691        O696   1.265       .  A
C691        C707   1.466       .  S
O692        C698   1.259       .  A
O692       Cd695   2.458   1_655  S
C693        O701   1.265       .  A
C694        O697   1.266       .  A
Cd695       O702   2.446   1_455  S
Cd695       O700   2.495       .  S
Cd695       O696   2.439       .  S
Cd695       O699   2.458   1_455  S
C698        O702   1.265       .  A
O703        C706   1.269       .  A
O703       Cd708   2.535       .  S
C704        O713   1.263       .  A
C704        O709   1.273       .  A
O705        C711   1.269       .  A
O705       Cd708   2.464       .  S
C706        O714   1.266       .  A
C707        O712   1.259       .  A
C707        O710   1.270       .  A
Cd708       O715   2.459       .  S
Cd708       O714   2.485       .  S
Cd708       O713   2.403       .  S
Cd708       O709   2.466       .  S
Cd708       O712   2.421       .  S
Cd708       O710   2.523       .  S
C711        O715   1.268       .  A
C711        C720   1.471       .  S
O716        C719   1.268       .  A
O716       Cd721   2.526       .  S
C717        O726   1.263       .  A
C717        O722   1.268       .  A
C717        C789   1.465       .  S
O718        C724   1.258       .  A
O718       Cd721   2.473       .  S
C719        O727   1.267       .  A
C720        O725   1.266       .  A
C720        O723   1.267       .  A
Cd721       O728   2.474       .  S
Cd721       O727   2.503       .  S
Cd721       O726   2.460       .  S
Cd721       O722   2.466       .  S
Cd721       O725   2.477       .  S
Cd721       O723   2.479       .  S
C724        O728   1.264       .  A
C724        C745   1.463       .  S
O729        C732   1.269       .  A
O729       Cd734   2.544       .  S
C730        O739   1.264       .  A
C730        O735   1.271       .  A
C730        C824   1.464       .  S
O731        C737   1.256       .  A
O731       Cd734   2.464       .  S
C732        O740   1.265       .  A
C733        O738   1.267       .  A
C733        O736   1.266       .  A
C733        C746   1.476   1_545  S
Cd734       O741   2.507       .  S
Cd734       O740   2.506       .  S
Cd734       O739   2.442       .  S
Cd734       O735   2.475       .  S
Cd734       O738   2.489       .  S
Cd734       O736   2.488       .  S
C737        O741   1.266       .  A
C737        C769   1.464       .  S
O742        C745   1.271       .  A
O742       Cd747   2.487       .  S
C743        O752   1.266       .  A
C743        O748   1.268       .  A
O744        C750   1.258       .  A
O744       Cd747   2.478       .  S
C745        O753   1.262       .  A
C746        O751   1.267       .  A
C746        O749   1.267       .  A
Cd747       O754   2.508       .  S
Cd747       O753   2.434       .  S
Cd747       O752   2.504       .  S
Cd747       O748   2.538       .  S
Cd747       O751   2.486       .  S
Cd747       O749   2.484       .  S
C750        O754   1.265       .  A
O755        C758   1.268       .  A
O755       Cd760   2.521       .  S
C756        O765   1.264       .  A
C756        O761   1.264       .  A
O757        C763   1.261       .  A
O757       Cd760   2.483       .  S
C758        O766   1.266       .  A
C759        O764   1.268       .  A
C759        O762   1.266       .  A
C759        C776   1.471       .  S
Cd760       O767   2.457       .  S
Cd760       O766   2.492       .  S
Cd760       O765   2.512       .  S
Cd760       O761   2.435       .  S
Cd760       O764   2.487       .  S
Cd760       O762   2.455       .  S
C763        O767   1.263       .  A
O768        C771   1.269       .  A
O768       Cd773   2.533       .  S
C769        O778   1.263       .  A
C769        O774   1.271       .  A
O770        C776   1.266       .  A
O770       Cd773   2.466       .  S
C771        O779   1.266       .  A
C772        O777   1.257       .  A
C772        O775   1.265       .  A
C772        C795   1.467       .  S
Cd773       O780   2.486       .  S
Cd773       O779   2.503       .  S
Cd773       O778   2.448       .  S
Cd773       O774   2.471       .  S
Cd773       O777   2.471       .  S
Cd773       O775   2.510       .  S
C776        O780   1.266       .  A
O781        C784   1.269       .  A
O781       Cd786   2.465       .  S
C782        O791   1.266       .  A
C782        O787   1.268       .  A
O783        C789   1.258       .  A
O783       Cd786   2.467       .  S
C784        O792   1.263       .  A
C785        O790   1.268       .  A
C785        O788   1.266       .  A
C785        C798   1.473       .  S
Cd786       O793   2.502       .  S
Cd786       O792   2.456       .  S
Cd786       O791   2.504       .  S
Cd786       O787   2.540       .  S
Cd786       O790   2.490       .  S
Cd786       O788   2.464       .  S
C789        O793   1.265       .  A
O794        C797   1.269       .  A
O794       Cd799   2.542       .  S
C795        O804   1.264       .  A
C795        O800   1.271       .  A
O796        C802   1.255       .  A
O796       Cd799   2.445       .  S
C797        O805   1.265       .  A
C798        O803   1.266       .  A
C798        O801   1.267       .  A
Cd799       O806   2.520       .  S
Cd799       O805   2.512       .  S
Cd799       O804   2.457       .  S
Cd799       O800   2.473       .  S
Cd799       O803   2.470       .  S
Cd799       O801   2.488       .  S
C802        O806   1.267       .  A
C802        C821   1.463       .  S
O807        C810   1.268       .  A
O807       Cd812   2.522       .  S
C808        O817   1.263       .  A
C808        O813   1.266       .  A
O809        C815   1.260       .  A
O809       Cd812   2.470       .  S
C810        O818   1.265       .  A
C811        O816   1.267       .  A
C811        O814   1.267       .  A
C811        C828   1.471       .  S
Cd812       O819   2.467       .  S
Cd812       O818   2.482       .  S
Cd812       O817   2.483       .  S
Cd812       O813   2.450       .  S
Cd812       O816   2.476       .  S
Cd812       O814   2.472       .  S
C815        O819   1.263       .  A
O820        C823   1.268       .  A
O820       Cd825   2.535       .  S
C821        O830   1.263       .  A
C821        O826   1.269       .  A
O822        C828   1.267       .  A
O822       Cd825   2.473       .  S
C823        O831   1.265       .  A
C824        O829   1.258       .  A
C824        O827   1.264       .  A
Cd825       O832   2.475       .  S
Cd825       O831   2.492       .  S
Cd825       O830   2.460       .  S
Cd825       O826   2.457       .  S
Cd825       O829   2.478       .  S
Cd825       O827   2.488       .  S
C828        O832   1.267       .  A
