geometry optimzed in LAMMPS
_audit_creation_date              2020-12-01 
_audit_creation_method            'lammps2cif' 
_symmetry_space_group_name_H-M    'P1' 
_symmetry_Int_Tables_number       1 
_symmetry_cell_setting            triclinic 
loop_ 
_symmetry_equiv_pos_as_xyz 
  x,y,z 
_cell_length_a                    60.93944573 
_cell_length_b                    60.7416806322177 
_cell_length_c                    35.165540718556855 
_cell_angle_alpha                 89.71318021622574 
_cell_angle_beta                  90.21181393004515 
_cell_angle_gamma                 119.99783000519042 
loop_ 
_atom_site_label 
_atom_site_type_symbol 
_atom_site_fract_x 
_atom_site_fract_y 
_atom_site_fract_z 
_atom_site_charge 
N1          N  0.58232168  0.28137886  0.06367030    -0.03200
C2          C  0.59746068  0.29794544  0.03642597    -0.00600
C3          C  0.62266642  0.30775067  0.04609573    -0.23500
C4          C  0.62314809  0.29747016  0.08058951    -0.23700
C5          C  0.59824488  0.28127077  0.09079726    -0.00700
H6          H  0.63904978  0.32066739  0.02943792     0.13000
H7          H  0.63990302  0.30178983  0.09693645     0.13100
N8          N  0.26429148  0.15935354  0.12505701    -0.27100
N9          N  0.28658478  0.17983626  0.13113575    -0.34900
C10         C  0.28299161  0.19801930  0.14662503     0.01300
C11         C  0.25719365  0.18864911  0.15096762     0.07300
C12         C  0.24597242  0.16411844  0.13645794    -0.05800
H13         H  0.29814888  0.21673530  0.15442698     0.08000
H14         H  0.22586113  0.15072378  0.13376740     0.09200
Cu15       Cu  0.32118353  0.18256725  0.11804632     0.44200
Cu16       Cu  0.25981777  0.12568188  0.10155462     0.42000
Cu17       Cu  0.31809077  0.12674340  0.07684609     0.43900
N18         N  0.35310344  0.18060511  0.10244664    -0.34400
N19         N  0.35186975  0.16021015  0.08702490    -0.28700
C20         C  0.37550515  0.16494758  0.07973486    -0.04800
C21         C  0.39253785  0.18939188  0.09157860     0.07400
C22         C  0.37761004  0.19882769  0.10552989     0.01200
H23         H  0.37998480  0.15150699  0.06692021     0.08900
H24         H  0.38405548  0.21769870  0.11656343     0.07900
N25         N  0.28234162  0.09514788  0.06947159    -0.35900
N26         N  0.26096232  0.09464201  0.07796616    -0.28100
C27         C  0.24136613  0.07146092  0.06938199    -0.03300
C28         C  0.25089385  0.05673593  0.05476603     0.05300
C29         C  0.27694383  0.07236448  0.05560544     0.03400
H30         H  0.22162109  0.06560917  0.07398823     0.08500
H31         H  0.29098402  0.06755203  0.04657478     0.07300
N32         N  0.28808857  0.67098313  0.99137120    -0.03200
C33         C  0.29883540  0.67119069  0.02534431    -0.00600
C34         C  0.32233778  0.67347479  0.02026705    -0.23500
C35         C  0.32644730  0.67495045  0.98185947    -0.23700
C36         C  0.30508116  0.67296559  0.96463573    -0.00700
H37         H  0.33470518  0.67308230  0.04209330     0.13000
H38         H  0.34282451  0.67620831  0.96785668     0.13100
N39         N  0.13392626  0.83351729  0.95443092    -0.27100
N40         N  0.15572119  0.83406332  0.95934792    -0.34900
C41         C  0.17344100  0.85768176  0.96988281     0.01300
C42         C  0.16235877  0.87282200  0.97144140     0.07300
C43         C  0.13720568  0.85671271  0.96186911    -0.05800
H44         H  0.19293512  0.86333038  0.97646901     0.08000
H45         H  0.12241018  0.86158477  0.96000903     0.09200
Cu46       Cu  0.16011725  0.80233244  0.95238667     0.44200
Cu47       Cu  0.10078598  0.80135690  0.93686192     0.42000
Cu48       Cu  0.10377506  0.74370830  0.92415688     0.43900
N49         N  0.15880219  0.76742797  0.94724732    -0.34400
N50         N  0.13812616  0.74599382  0.93794764    -0.28700
C51         C  0.14334313  0.72690000  0.93855793    -0.04800
C52         C  0.16849785  0.73670561  0.94876422     0.07400
C53         C  0.17774510  0.76251128  0.95365668     0.01200
H54         H  0.12983830  0.70731066  0.93148142     0.08900
H55         H  0.19680296  0.77662866  0.96181051     0.07900
N56         N  0.07199662  0.74666986  0.91093484    -0.35900
N57         N  0.07080368  0.76759745  0.91610975    -0.28100
C58         C  0.04779526  0.76329568  0.90513146    -0.03300
C59         C  0.03391440  0.73857694  0.89188403     0.05300
C60         C  0.04983005  0.72857773  0.89631567     0.03400
H61         H  0.04169851  0.77717737  0.90636359     0.08500
H62         H  0.04547728  0.70934642  0.88996913     0.07300
N63         N  0.62845226  0.31837757  0.73438280    -0.03200
C64         C  0.62486270  0.30415251  0.70278397    -0.00600
C65         C  0.61089709  0.27856332  0.71119189    -0.23500
C66         C  0.60553344  0.27674371  0.74924847    -0.23700
C67         C  0.61665748  0.30131703  0.76295956    -0.00700
H68         H  0.60502672  0.26292925  0.69155972     0.13000
H69         H  0.59454018  0.25933590  0.76526490     0.13100
N70         N  0.74722444  0.63943134  0.75709858    -0.27100
N71         N  0.72554235  0.61784544  0.75320406    -0.34900
C72         C  0.70699578  0.62323601  0.74599921     0.01300
C73         C  0.71747981  0.64942259  0.74541175     0.07300
C74         C  0.74304277  0.65901413  0.75219368    -0.05800
H75         H  0.68739993  0.60909624  0.74041966     0.08000
H76         H  0.75761683  0.67885502  0.75329860     0.09200
Cu77       Cu  0.72231372  0.58195795  0.75572337     0.44200
Cu78       Cu  0.78185848  0.64190254  0.76902325     0.42000
Cu79       Cu  0.78123264  0.58249422  0.77361261     0.43900
N80         N  0.72537591  0.54919483  0.75679918    -0.34400
N81         N  0.74701453  0.54960637  0.76281847    -0.28700
C82         C  0.74298127  0.52574570  0.76086545    -0.04800
C83         C  0.71761414  0.50941233  0.75286586     0.07400
C84         C  0.70698010  0.52495311  0.75095463     0.01200
H85         H  0.75748627  0.52066100  0.76527532     0.08900
H86         H  0.68737949  0.51909370  0.74515623     0.07900
N87         N  0.81308314  0.61724643  0.78598030    -0.35900
N88         N  0.81345263  0.63915895  0.78417246    -0.28100
C89         C  0.83650831  0.65790023  0.79500727    -0.03300
C90         C  0.85125694  0.64719281  0.80462135     0.05300
C91         C  0.83581084  0.62143278  0.79804563     0.03400
H92         H  0.84195657  0.67776861  0.79661885     0.08500
H93         H  0.84073997  0.60659554  0.80172781     0.07300
N94         N  0.29887839  0.65916543  0.65081129    -0.03200
C95         C  0.28342507  0.65452899  0.68110191    -0.00600
C96         C  0.25893334  0.64633919  0.66888201    -0.23500
C97         C  0.25915568  0.64513558  0.62995857    -0.23700
C98         C  0.28386587  0.65310925  0.61956207    -0.00700
H99         H  0.24251946  0.64116805  0.68647768     0.13000
H100        H  0.24287913  0.63828734  0.61134119     0.13100
N101        N  0.61711350  0.76929887  0.63334227    -0.27100
N102        N  0.59582003  0.74985172  0.64607863    -0.34900
C103        C  0.60097684  0.73285463  0.66234605     0.01300
C104        C  0.62683246  0.74218646  0.66025454     0.07300
C105        C  0.63641286  0.76522172  0.64127930    -0.05800
H106        H  0.58695433  0.71512294  0.67520360     0.08000
H107        H  0.65599740  0.77807316  0.63358132     0.09200
Cu108      Cu  0.56081723  0.74755588  0.64116261     0.44200
Cu109      Cu  0.61879314  0.80067484  0.60660054     0.42000
Cu110      Cu  0.55944080  0.80067832  0.59529323     0.43900
N111        N  0.52789184  0.74888337  0.63169195    -0.34400
N112        N  0.52718605  0.76783192  0.61411589    -0.28700
C113        C  0.50289955  0.76235620  0.61175463    -0.04800
C114        C  0.48772767  0.73908959  0.62923892     0.07400
C115        C  0.50419384  0.73105982  0.64135295     0.01200
H116        H  0.49677146  0.77457129  0.59886499     0.08900
H117        H  0.49928858  0.71341668  0.65590716     0.07900
N118        N  0.59470927  0.83116560  0.57997469    -0.35900
N119        N  0.61614961  0.83081233  0.58351407    -0.28100
C120        C  0.63540695  0.85305850  0.57101464    -0.03300
C121        C  0.62573020  0.86821187  0.55884267     0.05300
C122        C  0.59987371  0.85381457  0.56535840     0.03400
H123        H  0.65514045  0.85802550  0.57145999     0.08500
H124        H  0.58583401  0.85936149  0.55969987     0.07300
N125        N  0.75063396  0.08655328  0.43807932    -0.27100
N126        N  0.72951912  0.08732013  0.44305622    -0.34900
C127        C  0.71127483  0.06465202  0.45595713     0.01300
C128        C  0.72100092  0.04842989  0.45872847     0.07300
C129        C  0.74616395  0.06310914  0.44761397    -0.05800
H130        H  0.69233235  0.06046257  0.46331605     0.08000
H131        H  0.76017124  0.05714026  0.44646506     0.09200
Cu132      Cu  0.72552900  0.11870422  0.43226154     0.44200
Cu133      Cu  0.78461533  0.11793402  0.41928127     0.42000
Cu134      Cu  0.78123601  0.17552717  0.40249505     0.43900
N135        N  0.72571664  0.15225084  0.42048852    -0.34400
N136        N  0.74638041  0.17334061  0.41022552    -0.28700
C137        C  0.74064249  0.19187029  0.40545637    -0.04800
C138        C  0.71510176  0.18206890  0.41326728     0.07400
C139        C  0.70622559  0.15671756  0.42218263     0.01200
H140        H  0.75414686  0.21114929  0.39700181     0.08900
H141        H  0.68691693  0.14234212  0.42887390     0.07900
N142        N  0.81402661  0.17343197  0.39551279    -0.35900
N143        N  0.81549173  0.15268575  0.40151899    -0.28100
C144        C  0.83948034  0.15814695  0.39475079    -0.03300
C145        C  0.85375742  0.18345654  0.38348982     0.05300
C146        C  0.83689692  0.19247494  0.38473842     0.03400
H147        H  0.84612709  0.14475687  0.39851969     0.08500
H148        H  0.84095104  0.21157298  0.37818289     0.07300
N149        N  0.62542463  0.28314234  0.39582051    -0.03200
C150        C  0.61207956  0.28523645  0.36633404    -0.00600
C151        C  0.60158788  0.29991116  0.37644545    -0.23500
C152        C  0.60843364  0.30701230  0.41348571    -0.23700
C153        C  0.62272136  0.29627348  0.42492784    -0.00700
H154        H  0.59015454  0.30488977  0.35868415     0.13000
H155        H  0.60310139  0.31834779  0.43062677     0.13100
N156        N  0.27536712  0.61727950  0.31937630    -0.03200
C157        C  0.29215119  0.63142699  0.34703577    -0.00600
C158        C  0.30615888  0.65659885  0.33591866    -0.23500
C159        C  0.29814468  0.65814197  0.30018746    -0.23700
C160        C  0.27918273  0.63397417  0.29071981    -0.00700
H161        H  0.32004505  0.67238398  0.35265019     0.13000
H162        H  0.30524452  0.67515525  0.28289707     0.13100
N163        N  0.14759622  0.29565288  0.27901042    -0.27100
N164        N  0.16913959  0.31747522  0.27591416    -0.34900
C165        C  0.18713570  0.31280113  0.26255632     0.01300
C166        C  0.17653256  0.28679794  0.25718290     0.07300
C167        C  0.15136919  0.27664619  0.26763473    -0.05800
H168        H  0.20645103  0.32739702  0.25629826     0.08000
H169        H  0.13677645  0.25681660  0.26680016     0.09200
Cu170      Cu  0.17273582  0.35287631  0.28834682     0.44200
Cu171      Cu  0.11343674  0.29249868  0.29681537     0.42000
Cu172      Cu  0.11393707  0.35157685  0.31089104     0.43900
N173        N  0.17026160  0.38551858  0.29893371    -0.34400
N174        N  0.14868853  0.38487884  0.30628823    -0.28700
C175        C  0.15313007  0.40881227  0.30995899    -0.04800
C176        C  0.17874044  0.42558661  0.30439765     0.07400
C177        C  0.18902984  0.40998511  0.29809359     0.01200
H178        H  0.13861436  0.41365927  0.31571578     0.08900
H179        H  0.20875619  0.41589980  0.29334754     0.07900
N180        N  0.08136963  0.31616668  0.31526552    -0.35900
N181        N  0.08114155  0.29445474  0.31080205    -0.28100
C182        C  0.05727623  0.27512495  0.31580381    -0.03300
C183        C  0.04163747  0.28512659  0.32322804     0.05300
C184        C  0.05771817  0.31124036  0.32304623     0.03400
H185        H  0.05163488  0.25520880  0.31378227     0.08500
H186        H  0.05269601  0.32566511  0.32871873     0.07300
C187        C  0.22013047  0.55035137  0.30856655    -0.11100
C188        C  0.23161423  0.53588935  0.31768681     0.15400
C189        C  0.25737985  0.54869411  0.32874352     0.02300
C190        C  0.27128204  0.57528845  0.32828976    -0.15500
C191        C  0.25992400  0.58981601  0.31901186    -0.10300
C192        C  0.23372325  0.57700074  0.31047831     0.09000
C193        C  0.21694598  0.50768442  0.31354081     0.10000
S194        S  0.27350559  0.53218906  0.34447059    -0.24600
H195        H  0.29123387  0.58485924  0.33572202     0.20300
S196        S  0.21615720  0.59332366  0.30489162    -0.30300
H197        H  0.20028708  0.54077718  0.30058989     0.10600
C198        C  0.19520396  0.49210351  0.33548309     0.03800
C199        C  0.18305143  0.46550358  0.33161741    -0.12600
C200        C  0.19184164  0.45395976  0.30583841    -0.08300
C201        C  0.21283350  0.46985315  0.28247184     0.07300
C202        C  0.22526495  0.49627596  0.28704257    -0.13400
S203        S  0.18353121  0.50587472  0.36969858    -0.30300
H204        H  0.16695862  0.45361720  0.34950633     0.11500
S205        S  0.22390581  0.45805802  0.24458158    -0.27400
H206        H  0.24148018  0.50819197  0.26927244     0.08800
H207        H  0.22964728  0.61105603  0.33361840     0.27200
H208        H  0.16110483  0.48328480  0.37894125     0.22000
H209        H  0.19951893  0.43921001  0.23317582     0.27300
H210        H  0.25206892  0.51145325  0.36088498     0.16100
C211        C  0.67516123  0.26416446  0.40875506    -0.11100
C212        C  0.66154598  0.23833156  0.39910274     0.15400
C213        C  0.63596735  0.22754210  0.38774004     0.02300
C214        C  0.62460354  0.24268581  0.38688958    -0.15500
C215        C  0.63823765  0.26857189  0.39649134    -0.10300
C216        C  0.66406053  0.27948840  0.40679682     0.09000
C217        C  0.67463309  0.22329523  0.40163753     0.10000
S218        S  0.61686981  0.19471994  0.37384824    -0.24600
H219        H  0.60482572  0.23419813  0.37886161     0.20300
S220        S  0.68446360  0.31292041  0.41592511    -0.30300
H221        H  0.69486516  0.27259079  0.41724492     0.10600
C222        C  0.69499407  0.22830645  0.37740296     0.03800
C223        C  0.70765184  0.21449736  0.38188003    -0.12600
C224        C  0.70067317  0.19585650  0.41039442    -0.08300
C225        C  0.68037951  0.19116282  0.43500411     0.07300
C226        C  0.66740677  0.20459816  0.42992450    -0.13400
S227        S  0.70454519  0.25194405  0.34015482    -0.30300
H228        H  0.72297351  0.21810991  0.36274068     0.11500
S229        S  0.67118022  0.16986713  0.47518019    -0.27400
H230        H  0.65208127  0.20109410  0.44905841     0.08800
H231        H  0.67029369  0.32153929  0.39571013     0.27200
H232        H  0.72459883  0.24924778  0.32586907     0.22000
H233        H  0.69612982  0.17672221  0.48540682     0.27300
H234        H  0.63685876  0.19201603  0.35935971     0.16100
C235        C  0.97117634  0.26435264  0.32760147    -0.11100
C236        C  0.96197032  0.24330701  0.35220172     0.15400
C237        C  0.97910073  0.23600919  0.36661801     0.02300
C238        C  0.00467592  0.24955701  0.35589850    -0.15500
C239        C  0.01399667  0.27080890  0.33167906    -0.10300
C240        C  0.99680480  0.27804413  0.31708911     0.09000
C241        C  0.93423227  0.22834306  0.36021289     0.10000
S242        S  0.96965426  0.20991685  0.39947238    -0.24600
H243        H  0.01757741  0.24384781  0.36748565     0.20300
S244        S  0.00584492  0.30346955  0.28314393    -0.30300
H245        H  0.95811831  0.26974551  0.31566907     0.10600
C246        C  0.92145556  0.23887011  0.37972407     0.03800
C247        C  0.89527142  0.22387432  0.38654489    -0.12600
C248        C  0.88134022  0.19847611  0.37420960    -0.08300
C249        C  0.89417509  0.18830346  0.35366277     0.07300
C250        C  0.92033589  0.20316183  0.34737746    -0.13400
S251        S  0.93861204  0.27108879  0.39727935    -0.30300
H252        H  0.88567726  0.23185256  0.40227117     0.11500
S253        S  0.87824852  0.15716443  0.33253969    -0.27400
H254        H  0.92992844  0.19516923  0.33157165     0.08800
H255        H  0.02313605  0.29874747  0.26351968     0.27200
H256        H  0.91767998  0.27162159  0.41295604     0.22000
H257        H  0.85661768  0.15833017  0.32164627     0.27300
H258        H  0.95048891  0.21256036  0.41730641     0.16100
C259        C  0.67357382  0.92768187  0.50536560    -0.11100
C260        C  0.66868621  0.94606743  0.52068794     0.15400
C261        C  0.64924905  0.93860547  0.54796975     0.02300
C262        C  0.63512163  0.91303882  0.55912612    -0.15500
C263        C  0.64014255  0.89463206  0.54407252    -0.10300
C264        C  0.65938648  0.90211063  0.51635220     0.09000
C265        C  0.68253971  0.97229116  0.50501200     0.10000
S266        S  0.64167046  0.96081260  0.56970662    -0.24600
H267        H  0.62047546  0.90757834  0.58041637     0.20300
S268        S  0.66564738  0.87979423  0.49196249    -0.30300
H269        H  0.68799963  0.93317985  0.48369691     0.10600
C270        C  0.70820961  0.98918083  0.51367181     0.03800
C271        C  0.72052035  0.01366559  0.49741779    -0.12600
C272        C  0.70765591  0.02167921  0.47270085    -0.08300
C273        C  0.68202701  0.00429827  0.46343939     0.07300
C274        C  0.66977270  0.98008058  0.48003332    -0.13400
S275        S  0.72495427  0.97984283  0.54651621    -0.30300
H276        H  0.74006048  0.02684193  0.50471888     0.11500
S277        S  0.66412449  0.01107621  0.42913546    -0.27400
H278        H  0.65017754  0.96692241  0.47279148     0.08800
H279        H  0.64022888  0.86006480  0.49123219     0.27200
H280        H  0.74780572  0.00322604  0.54677584     0.22000
H281        H  0.68478469  0.02534552  0.40480427     0.27300
H282        H  0.66617714  0.98207154  0.56732471     0.16100
C283        C  0.36796341  0.70379645  0.63315538    -0.11100
C284        C  0.37854311  0.68868167  0.64306171     0.15400
C285        C  0.36258101  0.66403592  0.65806502     0.02300
C286        C  0.33653353  0.65507987  0.66225712    -0.15500
C287        C  0.32597664  0.66996705  0.65091011    -0.10300
C288        C  0.34202258  0.69474422  0.63688013     0.09000
C289        C  0.40640207  0.69989660  0.63883507     0.10000
S290        S  0.37404866  0.64280630  0.67097325    -0.24600
H291        H  0.32422720  0.63605152  0.67288240     0.20300
S292        S  0.33057017  0.71588489  0.62367837    -0.30300
H293        H  0.38008848  0.72290985  0.62258493     0.10600
C294        C  0.41832444  0.70789268  0.60303828     0.03800
C295        C  0.44488810  0.72087642  0.60081787    -0.12600
C296        C  0.45984495  0.72563166  0.63350960    -0.08300
C297        C  0.44785756  0.71717226  0.66921727     0.07300
C298        C  0.42136339  0.70441472  0.67146509    -0.13400
S299        S  0.39971141  0.70097888  0.56002770    -0.30300
H300        H  0.45411305  0.72710912  0.57343794     0.11500
S301        S  0.46524033  0.72321384  0.71316856    -0.27400
H302        H  0.41232834  0.69863619  0.69906287     0.08800
H303        H  0.30986679  0.70559900  0.64875437     0.27200
H304        H  0.42015463  0.71150621  0.53440607     0.22000
H305        H  0.48516037  0.74730199  0.70245800     0.27300
H306        H  0.39370448  0.65201745  0.64405145     0.16100
C307        C  0.28498844  0.65220686  0.51237953    -0.11100
C308        C  0.29355331  0.63498074  0.50606025     0.15400
C309        C  0.30275009  0.62703325  0.53701038     0.02300
C310        C  0.30152628  0.63516932  0.57377504    -0.15500
C311        C  0.29115078  0.65091988  0.58031546    -0.10300
C312        C  0.28363089  0.66022598  0.54893151     0.09000
C313        C  0.29272780  0.62641031  0.46649894     0.10000
S314        S  0.31496551  0.60560214  0.53193740    -0.24600
H315        H  0.30701444  0.62763245  0.59764526     0.20300
S316        S  0.27142521  0.68176828  0.55316759    -0.33900
H317        H  0.27874515  0.65906866  0.48847990     0.10600
C318        C  0.26948237  0.61318426  0.44678813     0.03800
C319        C  0.26952469  0.61204145  0.40700202    -0.12600
C320        C  0.29239828  0.62344434  0.38680644    -0.08300
C321        C  0.31545806  0.63299627  0.40708618     0.07300
C322        C  0.31546131  0.63495314  0.44667491    -0.13400
S323        S  0.23977443  0.59936088  0.47216626    -0.30300
H324        H  0.25178376  0.60440919  0.39163410     0.11500
S325        S  0.34554556  0.64439575  0.38372700    -0.27400
H326        H  0.33335567  0.64446080  0.46185933     0.08800
H327        H  0.28073866  0.69078068  0.58970785     0.27200
H328        H  0.22402687  0.58763716  0.44056892     0.22000
H329        H  0.33538108  0.63025857  0.35024430     0.27300
H330        H  0.30073277  0.59288440  0.49960099     0.16100
C331        C  0.67684753  0.72990822  0.70494245    -0.11100
C332        C  0.66674929  0.70396107  0.69720491     0.15400
C333        C  0.64330093  0.69068340  0.67795710     0.02300
C334        C  0.63049567  0.70349353  0.66717420    -0.15500
C335        C  0.64078768  0.72956123  0.67424510    -0.10300
C336        C  0.66414367  0.74278885  0.69387959     0.09000
C337        C  0.68055740  0.69101781  0.71074234     0.10000
S338        S  0.62900307  0.65754965  0.66549945    -0.24600
H339        H  0.61265509  0.69315027  0.65209491     0.20300
S340        S  0.67809601  0.77564125  0.70764506    -0.30300
H341        H  0.69456021  0.74008315  0.72038032     0.10600
C342        C  0.70439261  0.69712099  0.69577490     0.03800
C343        C  0.71630848  0.68374224  0.70849017    -0.12600
C344        C  0.70482824  0.66417163  0.73561254    -0.08300
C345        C  0.68132803  0.65870561  0.75146463     0.07300
C346        C  0.66943984  0.67204458  0.73874063    -0.13400
S347        S  0.71903584  0.72097874  0.65899955    -0.30300
H348        H  0.73430997  0.68796205  0.69632057     0.11500
S349        S  0.66593507  0.63565116  0.78887644    -0.27400
H350        H  0.65135285  0.66765756  0.75083549     0.08800
H351        H  0.65490286  0.77439667  0.71568259     0.27200
H352        H  0.74094356  0.71903489  0.65472520     0.22000
H353        H  0.68847150  0.64004023  0.80667355     0.27300
H354        H  0.65189349  0.65765025  0.65994675     0.16100
C355        C  0.67480109  0.38621958  0.76136060    -0.11100
C356        C  0.66565376  0.39949369  0.74001281     0.15400
C357        C  0.64437732  0.38575993  0.71617911     0.02300
C358        C  0.63232457  0.35915856  0.71520973    -0.15500
C359        C  0.64138678  0.34580478  0.73663155    -0.10300
C360        C  0.66301078  0.35959095  0.75979817     0.09000
C361        C  0.67867248  0.42760928  0.74347343     0.10000
S362        S  0.63172002  0.40101725  0.68634279    -0.24600
H363        H  0.61566098  0.34871367  0.69758049     0.20300
S364        S  0.67646487  0.34361980  0.78607427    -0.30300
H365        H  0.69133798  0.39687654  0.77919029     0.10600
C366        C  0.66816063  0.43973139  0.76462839     0.03800
C367        C  0.68104095  0.46642254  0.76668267    -0.12600
C368        C  0.70444386  0.48132376  0.74838163    -0.08300
C369        C  0.71484014  0.46898656  0.72708305     0.07300
C370        C  0.70205238  0.44237716  0.72533684    -0.13400
S371        S  0.63867566  0.42113442  0.78983218    -0.30300
H372        H  0.67309090  0.47573508  0.78318309     0.11500
S373        S  0.74355228  0.48594174  0.69970972    -0.27400
H374        H  0.71007439  0.43308465  0.70890498     0.08800
H375        H  0.69480177  0.36499655  0.80599942     0.27200
H376        H  0.63842262  0.44163860  0.80781401     0.22000
H377        H  0.73911061  0.50561988  0.68837756     0.27300
H378        H  0.65474258  0.42369246  0.68046144     0.16100
C379        C  0.65698888  0.31209136  0.60868962    -0.11100
C380        C  0.63891464  0.31236565  0.58424847     0.15400
C381        C  0.61876254  0.31464054  0.59972792     0.02300
C382        C  0.61622359  0.31488489  0.63919786    -0.15500
C383        C  0.63352357  0.31328156  0.66375419    -0.10300
C384        C  0.65454031  0.31261815  0.64824405     0.09000
C385        C  0.63991909  0.30784781  0.54315349     0.10000
S386        S  0.59414869  0.31460248  0.57095999    -0.24600
H387        H  0.59954108  0.31440285  0.65082378     0.20300
S388        S  0.67745343  0.30996918  0.67751633    -0.30300
H389        H  0.67247149  0.31035328  0.59692091     0.10600
C390        C  0.65193973  0.32818149  0.51735085     0.03800
C391        C  0.64769066  0.32342573  0.47829460    -0.12600
C392        C  0.63203275  0.29866843  0.46446592    -0.08300
C393        C  0.62179802  0.27805108  0.49036418     0.07300
C394        C  0.62605290  0.28288648  0.52941938    -0.13400
S395        S  0.67063096  0.36036397  0.53441266    -0.30300
H396        H  0.65538348  0.33920959  0.45844619     0.11500
S397        S  0.60139037  0.24549242  0.47619270    -0.27400
H398        H  0.61704739  0.26723559  0.54939660     0.08800
H399        H  0.67396309  0.32138167  0.70976809     0.27200
H400        H  0.67809800  0.37205240  0.49849667     0.22000
H401        H  0.58933944  0.25062438  0.44616161     0.27300
H402        H  0.60912045  0.32662101  0.53893669     0.16100
C403        C  0.97405828  0.69832624  0.83359751    -0.11100
C404        C  0.95597205  0.70085984  0.85473097     0.15400
C405        C  0.96369394  0.71608253  0.88772779     0.02300
C406        C  0.98915048  0.72814538  0.89900497    -0.15500
C407        C  0.00728413  0.72547359  0.87813907    -0.10300
C408        C  0.99962812  0.71053646  0.84479059     0.09000
C409        C  0.92920555  0.68726534  0.84171159     0.10000
S410        S  0.94204588  0.72074602  0.91686707    -0.24600
H411        H  0.99485568  0.73964059  0.92461416     0.20300
S412        S  0.02245087  0.70820473  0.81495045    -0.30300
H413        H  0.96804485  0.68687443  0.80800882     0.10600
C414        C  0.92101180  0.69664162  0.81139712     0.03800
C415        C  0.89547885  0.68334124  0.80012989    -0.12600
C416        C  0.87792154  0.66065884  0.81832464    -0.08300
C417        C  0.88614539  0.65148776  0.84913091     0.07300
C418        C  0.91170757  0.66486104  0.86034968    -0.13400
S419        S  0.94305646  0.72582481  0.78756300    -0.30300
H420        H  0.88917565  0.69045371  0.77664683     0.11500
S421        S  0.86403460  0.62377904  0.87601193    -0.27400
H422        H  0.91816545  0.65805478  0.88401652     0.08800
H423        H  0.00493605  0.69009049  0.78951087     0.27200
H424        H  0.92533218  0.72704748  0.76321638     0.22000
H425        H  0.88176732  0.62323823  0.90114012     0.27300
H426        H  0.92476603  0.71758271  0.88793088     0.16100
C427        C  0.28944105  0.66934833  0.13121338    -0.11100
C428        C  0.26796334  0.64523109  0.13559333     0.15400
C429        C  0.25410564  0.63185963  0.10316165     0.02300
C430        C  0.26332530  0.64200588  0.06695650    -0.15500
C431        C  0.28602201  0.66524171  0.06264285    -0.10300
C432        C  0.29854109  0.67953981  0.09525312     0.09000
C433        C  0.26233206  0.63447472  0.17448067     0.10000
S434        S  0.22561738  0.60127543  0.10603869    -0.24600
H435        H  0.25362498  0.63090577  0.04206332     0.20300
S436        S  0.32688926  0.71034408  0.09309197    -0.30300
H437        H  0.29984686  0.67989374  0.15614421     0.10600
C438        C  0.27138969  0.61844297  0.18745170     0.03800
C439        C  0.27320783  0.61528487  0.22675316    -0.12600
C440        C  0.26693946  0.62857281  0.25298472    -0.08300
C441        C  0.25571743  0.64275260  0.23972455     0.07300
C442        C  0.25328641  0.64523482  0.20070932    -0.13400
S443        S  0.28372282  0.60480346  0.15413968    -0.30300
H444        H  0.28218235  0.60482119  0.23694278     0.11500
S445        S  0.24675548  0.66073694  0.27044766    -0.27400
H446        H  0.24643115  0.65763956  0.19066281     0.08800
H447        H  0.32300088  0.71660297  0.05614000     0.27200
H448        H  0.29013103  0.59176262  0.18110474     0.22000
H449        H  0.24917680  0.65107840  0.30548587     0.27300
H450        H  0.21894389  0.60405191  0.14318231     0.16100
C451        C  0.18981190  0.68969868  0.97851180    -0.11100
C452        C  0.21380021  0.70072229  0.96147328     0.15400
C453        C  0.22188915  0.72243460  0.93818281     0.02300
C454        C  0.20672975  0.73362467  0.93451969    -0.15500
C455        C  0.18302506  0.72312192  0.95236658    -0.10300
C456        C  0.17426599  0.70059357  0.97409620     0.09000
C457        C  0.23137363  0.69139660  0.97209725     0.10000
S458        S  0.25173916  0.73712312  0.91327210    -0.24600
H459        H  0.21347462  0.75069532  0.91739478     0.20300
S460        S  0.14434438  0.68680027  0.99888892    -0.30300
H461        H  0.18378747  0.67316065  0.99655800     0.10600
C462        C  0.25191857  0.70569029  0.99673314     0.03800
C463        C  0.26983049  0.69808407  0.00318999    -0.12600
C464        C  0.26754106  0.67614373  0.98630153    -0.08300
C465        C  0.24595522  0.66078785  0.96379883     0.07300
C466        C  0.22825972  0.66874191  0.95651009    -0.13400
S467        S  0.25544264  0.73379786  0.01985494    -0.30300
H468        H  0.28615767  0.70962750  0.02078898     0.11500
S469        S  0.23978089  0.63088769  0.94417772    -0.27400
H470        H  0.21216103  0.65740508  0.93825804     0.08800
H471        H  0.14574912  0.66656255  0.01601388     0.27200
H472        H  0.27790220  0.74009433  0.03969669     0.22000
H473        H  0.25458980  0.62653806  0.97052426     0.27300
H474        H  0.25285561  0.71471528  0.90894172     0.16100
C475        C  0.27869446  0.64145601  0.78652396    -0.11100
C476        C  0.29717632  0.66499327  0.80091198     0.15400
C477        C  0.31372576  0.68414198  0.77529390     0.02300
C478        C  0.30980491  0.68004592  0.73599256    -0.15500
C479        C  0.29050069  0.65679569  0.72177472    -0.10300
C480        C  0.27564652  0.63694353  0.74754185     0.09000
C481        C  0.29906817  0.66794023  0.84281882     0.10000
S482        S  0.34006400  0.71402385  0.79070472    -0.24600
H483        H  0.32148632  0.69534465  0.71648444     0.20300
S484        S  0.25264832  0.60523090  0.73255650    -0.30300
H485        H  0.26656147  0.62631795  0.80598725     0.10600
C486        C  0.29371771  0.68501134  0.86227203     0.03800
C487        C  0.29521671  0.68619528  0.90224140    -0.12600
C488        C  0.30092650  0.66987379  0.92300787    -0.08300
C489        C  0.30470189  0.65177336  0.90325749     0.07300
C490        C  0.30439426  0.65150761  0.86368603    -0.13400
S491        S  0.28390060  0.70440024  0.83650225    -0.30300
H492        H  0.29203686  0.69986624  0.91726407     0.11500
S493        S  0.30904282  0.62767946  0.92664634    -0.27400
H494        H  0.30771450  0.63781020  0.84888559     0.08800
H495        H  0.26541262  0.60586527  0.69894751     0.27200
H496        H  0.28746178  0.72096794  0.86666108     0.22000
H497        H  0.29377610  0.62481977  0.95826498     0.27300
H498        H  0.34370975  0.70530973  0.82595034     0.16100
C499        C  0.21121307  0.20506656  0.20039793    -0.11100
C500        C  0.22227669  0.23113067  0.19227671     0.15400
C501        C  0.24502450  0.24309951  0.17111383     0.02300
C502        C  0.25597745  0.22887172  0.15854311    -0.15500
C503        C  0.24480767  0.20268313  0.16625844    -0.10300
C504        C  0.22230016  0.19087487  0.18821044     0.09000
C505        C  0.21047783  0.24551085  0.20825308     0.10000
S506        S  0.26092365  0.27641140  0.15881322    -0.24600
H507        H  0.27319989  0.23833741  0.14188479     0.20300
S508        S  0.20774131  0.15838756  0.20435872    -0.30300
H509        H  0.19417254  0.19586371  0.21751734     0.10600
C510        C  0.18619230  0.24053781  0.19682633     0.03800
C511        C  0.17551609  0.25401725  0.21360741    -0.12600
C512        C  0.18868270  0.27274667  0.24131207    -0.08300
C513        C  0.21302206  0.27761327  0.25270935     0.07300
C514        C  0.22360067  0.26409475  0.23603829    -0.13400
S515        S  0.16917683  0.21772336  0.15977721    -0.30300
H516        H  0.15696819  0.25029905  0.20457030     0.11500
S517        S  0.23111317  0.29983341  0.28968337    -0.27400
H518        H  0.24211014  0.26777290  0.24531831     0.08800
H519        H  0.23081610  0.15911208  0.21160751     0.27200
H520        H  0.14821452  0.22148597  0.15823238     0.22000
H521        H  0.21004147  0.29434354  0.31244766     0.27300
H522        H  0.23895660  0.27843227  0.15676131     0.16100
C523        C  0.21001149  0.94345864  0.98309645    -0.11100
C524        C  0.19747441  0.95081578  0.00905925     0.15400
C525        C  0.17280259  0.93267664  0.02113031     0.02300
C526        C  0.16153848  0.90763458  0.00757388    -0.15500
C527        C  0.17441554  0.90005556  0.98244574    -0.10300
C528        C  0.19871156  0.91853520  0.96934353     0.09000
C529        C  0.21059073  0.97769211  0.02205595     0.10000
S530        S  0.15485720  0.94008588  0.05417036    -0.24600
H531        H  0.14285183  0.89376976  0.01763787     0.20300
S532        S  0.21573549  0.91206001  0.93344031    -0.30300
H533        H  0.22864938  0.95743063  0.97295673     0.10600
C534        C  0.23167387  0.98715649  0.04667552     0.03800
C535        C  0.24451189  0.01300424  0.05662996    -0.12600
C536        C  0.23671260  0.02971393  0.04260993    -0.08300
C537        C  0.21572499  0.02019280  0.01756702     0.07300
C538        C  0.20274030  0.99431259  0.00799080    -0.13400
S539        S  0.24188142  0.96613973  0.06607422    -0.30300
H540        H  0.26055317  0.02022205  0.07580738     0.11500
S541        S  0.20559951  0.04030244  0.99491182    -0.27400
H542        H  0.18685389  0.98720323  0.98849024     0.08800
H543        H  0.19401652  0.89516530  0.91268640     0.27200
H544        H  0.26213979  0.98448603  0.08784686     0.22000
H545        H  0.23012262  0.06136669  0.99071356     0.27300
H546        H  0.17571373  0.95949819  0.07356542     0.16100
C547        C  0.60391611  0.25390238  0.18408984    -0.11100
C548        C  0.59239056  0.26323779  0.20852682     0.15400
C549        C  0.57867045  0.27425929  0.19272242     0.02300
C550        C  0.57778303  0.27662970  0.15317040    -0.15500
C551        C  0.59133099  0.26942569  0.12901062    -0.10300
C552        C  0.60357738  0.25685881  0.14468589     0.09000
C553        C  0.59780544  0.26418629  0.24986565     0.10000
S554        S  0.56425348  0.28823069  0.22120940    -0.24600
H555        H  0.56880275  0.28673187  0.14159688     0.20300
S556        S  0.62068305  0.24567141  0.11638726    -0.30300
H557        H  0.61435393  0.24535257  0.19596270     0.10600
C558        C  0.57855165  0.25129185  0.27701153     0.03800
C559        C  0.58418692  0.25687838  0.31571326    -0.12600
C560        C  0.60885965  0.27438602  0.32780152    -0.08300
C561        C  0.62859286  0.28511783  0.30092215     0.07300
C562        C  0.62284758  0.28000479  0.26218951    -0.13400
S563        S  0.54676877  0.22840550  0.26228960    -0.30300
H564        H  0.56910180  0.24856516  0.33658528     0.11500
S565        S  0.66064051  0.30732834  0.31518131    -0.27400
H566        H  0.63767700  0.28957874  0.24119599     0.08800
H567        H  0.60919846  0.24504001  0.08146028     0.27200
H568        H  0.53674472  0.22060906  0.29904440     0.22000
H569        H  0.67209194  0.30758898  0.28038303     0.27300
H570        H  0.58299298  0.29783105  0.24963834     0.16100
C571        C  0.46332109  0.23115746  0.11100820    -0.11100
C572        C  0.47366649  0.22947250  0.07629349     0.15400
C573        C  0.45721020  0.21403925  0.04715570     0.02300
C574        C  0.43098193  0.20076031  0.05333581    -0.15500
C575        C  0.42054861  0.20281128  0.08779192    -0.10300
C576        C  0.43708665  0.21791459  0.11718481     0.09000
C577        C  0.50168205  0.24316679  0.07198949     0.10000
S578        S  0.46841549  0.21083849  0.00124332    -0.24600
H579        H  0.41855005  0.18925909  0.03057701     0.20300
S580        S  0.42615554  0.21998939  0.16387246    -0.30300
H581        H  0.47587276  0.24251206  0.13377850     0.10600
C582        C  0.51594814  0.26993763  0.06980509     0.03800
C583        C  0.54243382  0.28208330  0.06621099    -0.12600
C584        C  0.55499278  0.26805562  0.06489710    -0.08300
C585        C  0.54058466  0.24124133  0.06607979     0.07300
C586        C  0.51421328  0.22912248  0.07007500    -0.13400
S587        S  0.50035869  0.28857056  0.07088710    -0.30300
H588        H  0.55361344  0.30267568  0.06498232     0.11500
S589        S  0.55466558  0.22149021  0.06118295    -0.27400
H590        H  0.50329237  0.20852350  0.07129906     0.08800
H591        H  0.40620746  0.19463124  0.16492995     0.27200
H592        H  0.52246600  0.31256169  0.06947502     0.22000
H593        H  0.57477779  0.23859965  0.03792986     0.27300
H594        H  0.48994193  0.23525286  0.00024216     0.16100
C595        C  0.60408458  0.32890913  0.94159432    -0.11100
C596        C  0.59163690  0.30729520  0.91863505     0.15400
C597        C  0.57517909  0.28355319  0.93581711     0.02300
C598        C  0.57463767  0.28120802  0.97548114    -0.15500
C599        C  0.58969762  0.30232779  0.99839338    -0.10300
C600        C  0.60268695  0.32672019  0.98127064     0.09000
C601        C  0.60014476  0.30879073  0.87876028     0.10000
S602        S  0.55627177  0.25517938  0.90839427    -0.24600
H603        H  0.56422888  0.26246588  0.98804950     0.20300
S604        S  0.61934844  0.35553062  0.00865349    -0.30300
H605        H  0.61625827  0.34728893  0.92869715     0.10600
C606        C  0.59531011  0.32197059  0.84982475     0.03800
C607        C  0.60261044  0.32095257  0.81219812    -0.12600
C608        C  0.61456607  0.30696234  0.80323050    -0.08300
C609        C  0.62062998  0.29504436  0.83284559     0.07300
C610        C  0.61342571  0.29617745  0.87001094    -0.13400
S611        S  0.57838330  0.33851891  0.86035929    -0.30300
H612        H  0.59774281  0.32982140  0.78944657     0.11500
S613        S  0.63690676  0.27738620  0.82544760    -0.27400
H614        H  0.61775417  0.28660314  0.89242296     0.08800
H615        H  0.60514371  0.34524625  0.04208145     0.27200
H616        H  0.57826773  0.34695041  0.82306874     0.22000
H617        H  0.64856485  0.28870391  0.79080985     0.27300
H618        H  0.55480390  0.26782271  0.87568487     0.16100
loop_ 
_geom_bond_atom_site_label_1 
_geom_bond_atom_site_label_2 
_geom_bond_distance 
_geom_bond_site_symmetry_2 
_ccdc_geom_bond_type 
N1            C5   1.361       .  A
N1            C2   1.360       .  A
N1          C584   1.443       .  S
C2            C3   1.383       .  A
C2          C599   1.484   1_554  S
C3            C4   1.368       .  A
C3            H6   1.083       .  S
C4            C5   1.381       .  A
C4            H7   1.082       .  S
C5          C551   1.481       .  S
N8           C12   1.348       .  A
N8            N9   1.323       .  A
N8          Cu16   2.097       .  S
N9           C10   1.347       .  A
N9          Cu15   2.084       .  S
C10          C11   1.387       .  A
C10          H13   1.083       .  S
C11          C12   1.391       .  A
C11         C503   1.495       .  S
C12          H14   1.084       .  S
Cu15         N18   2.083       .  S
Cu16         N26   2.096       .  S
Cu17         N19   2.077       .  S
Cu17         N25   2.078       .  S
N18          C22   1.347       .  A
N18          N19   1.322       .  A
N19          C20   1.346       .  A
C20          C21   1.385       .  A
C20          H23   1.082       .  S
C21          C22   1.387       .  A
C21         C575   1.485       .  S
C22          H24   1.083       .  S
N25          C29   1.346       .  A
N25          N26   1.323       .  A
N26          C27   1.349       .  A
C27          C28   1.388       .  A
C27          H30   1.083       .  S
C28          C29   1.384       .  A
C28         C536   1.486       .  S
C29          H31   1.082       .  S
N32          C36   1.361       .  A
N32          C33   1.357   1_556  A
N32         C464   1.445       .  S
C33          C34   1.380       .  A
C33         C431   1.477       .  S
C34          C35   1.369   1_554  A
C34          H37   1.082       .  S
C35          C36   1.384       .  A
C35          H38   1.082       .  S
C36         C488   1.481       .  S
N39          C43   1.347       .  A
N39          N40   1.323       .  A
N39         Cu47   2.082       .  S
N40          C41   1.347       .  A
N40         Cu46   2.090       .  S
C41          C42   1.388       .  A
C41          H44   1.083       .  S
C42          C43   1.386       .  A
C42         C527   1.488       .  S
C43          H45   1.082       .  S
Cu46         N49   2.090       .  S
Cu47         N57   2.082       .  S
Cu48         N50   2.083       .  S
Cu48         N56   2.083       .  S
N49          C53   1.347       .  A
N49          N50   1.323       .  A
N50          C51   1.347       .  A
C51          C52   1.385       .  A
C51          H54   1.085       .  S
C52          C53   1.387       .  A
C52         C455   1.486       .  S
C53          H55   1.082       .  S
N56          C60   1.346       .  A
N56          N57   1.323       .  A
N57          C58   1.347       .  A
C58          C59   1.386       .  A
C58          H61   1.079       .  S
C59          C60   1.386       .  A
C59         C407   1.486       .  S
C60          H62   1.085       .  S
N63          C67   1.360       .  A
N63          C64   1.359       .  A
N63         C359   1.446       .  S
C64          C65   1.379       .  A
C64         C383   1.475       .  S
C65          C66   1.370       .  A
C65          H68   1.082       .  S
C66          C67   1.383       .  A
C66          H69   1.083       .  S
C67         C608   1.480       .  S
N70          C74   1.345       .  A
N70          N71   1.324       .  A
N70         Cu78   2.081       .  S
N71          C72   1.348       .  A
N71         Cu77   2.090       .  S
C72          C73   1.386       .  A
C72          H75   1.085       .  S
C73          C74   1.384       .  A
C73         C344   1.484       .  S
C74          H76   1.083       .  S
Cu77         N80   2.090       .  S
Cu78         N88   2.081       .  S
Cu79         N81   2.078       .  S
Cu79         N87   2.078       .  S
N80          C84   1.348       .  A
N80          N81   1.323       .  A
N81          C82   1.346       .  A
C82          C83   1.385       .  A
C82          H85   1.083       .  S
C83          C84   1.388       .  A
C83         C368   1.487       .  S
C84          H86   1.081       .  S
N87          C91   1.344       .  A
N87          N88   1.321       .  A
N88          C89   1.348       .  A
C89          C90   1.388       .  A
C89          H92   1.082       .  S
C90          C91   1.385       .  A
C90         C416   1.487       .  S
C91          H93   1.090       .  S
N94          C98   1.356       .  A
N94          C95   1.356       .  A
N94         C287   1.440       .  S
C95          C96   1.384       .  A
C95         C479   1.479       .  S
C96          C97   1.372       .  A
C96          H99   1.082       .  S
C97          C98   1.382       .  A
C97         H100   1.082       .  S
C98         C311   1.478       .  S
N101        C105   1.346       .  A
N101        N102   1.321       .  A
N101       Cu109   2.077       .  S
N102        C103   1.345       .  A
N102       Cu108   2.073       .  S
C103        C104   1.384       .  A
C103        H106   1.083       .  S
C104        C105   1.386       .  A
C104        C335   1.483       .  S
C105        H107   1.084       .  S
Cu108       N111   2.074       .  S
Cu109       N119   2.077       .  S
Cu110       N112   2.087       .  S
Cu110       N118   2.087       .  S
N111        C115   1.345       .  A
N111        N112   1.323       .  A
N112        C113   1.347       .  A
C113        C114   1.385       .  A
C113        H116   1.081       .  S
C114        C115   1.382       .  A
C114        C296   1.480       .  S
C115        H117   1.084       .  S
N118        C122   1.348       .  A
N118        N119   1.323       .  A
N119        C120   1.345       .  A
C120        C121   1.384       .  A
C120        H123   1.084       .  S
C121        C122   1.387       .  A
C121        C263   1.484       .  S
C122        H124   1.082       .  S
N125        C129   1.350       .  A
N125        N126   1.323       .  A
N125       Cu133   2.100       .  S
N126        C127   1.343       .  A
N126       Cu132   2.072       .  S
C127        C128   1.384       .  A
C127        H130   1.083       .  S
C128        C129   1.390       .  A
C128        C272   1.489       .  S
C129        H131   1.082       .  S
Cu132       N135   2.072       .  S
Cu133       N143   2.100       .  S
Cu134       N136   2.080       .  S
Cu134       N142   2.080       .  S
N135        C139   1.346       .  A
N135        N136   1.320       .  A
N136        C137   1.345       .  A
C137        C138   1.388       .  A
C137        H140   1.082       .  S
C138        C139   1.388       .  A
C138        C224   1.490       .  S
C139        H141   1.084       .  S
N142        C146   1.346       .  A
N142        N143   1.323       .  A
N143        C144   1.349       .  A
C144        C145   1.391       .  A
C144        H147   1.082       .  S
C145        C146   1.386       .  A
C145        C248   1.494       .  S
C146        H148   1.082       .  S
N149        C153   1.361       .  A
N149        C150   1.360       .  A
N149        C215   1.444       .  S
C150        C151   1.380       .  A
C150        C560   1.479       .  S
C151        C152   1.371       .  A
C151        H154   1.083       .  S
C152        C153   1.381       .  A
C152        H155   1.083       .  S
C153        C392   1.480       .  S
N156        C160   1.361       .  A
N156        C157   1.361       .  A
N156        C191   1.449       .  S
C157        C158   1.382       .  A
C157        C320   1.480       .  S
C158        C159   1.366       .  A
C158        H161   1.083       .  S
C159        C160   1.381       .  A
C159        H162   1.083       .  S
C160        C440   1.476       .  S
N163        C167   1.348       .  A
N163        N164   1.324       .  A
N163       Cu171   2.091       .  S
N164        C165   1.349       .  A
N164       Cu170   2.098       .  S
C165        C166   1.389       .  A
C165        H168   1.085       .  S
C166        C167   1.387       .  A
C166        C512   1.493       .  S
C167        H169   1.082       .  S
Cu170       N173   2.097       .  S
Cu171       N181   2.091       .  S
Cu172       N174   2.078       .  S
Cu172       N180   2.078       .  S
N173        C177   1.348       .  A
N173        N174   1.322       .  A
N174        C175   1.346       .  A
C175        C176   1.386       .  A
C175        H178   1.083       .  S
C176        C177   1.392       .  A
C176        C200   1.495       .  S
C177        H179   1.082       .  S
N180        C184   1.346       .  A
N180        N181   1.322       .  A
N181        C182   1.348       .  A
C182        C183   1.388       .  A
C182        H185   1.082       .  S
C183        C184   1.386       .  A
C183        C239   1.489       .  S
C184        H186   1.082       .  S
C187        C188   1.405       .  A
C187        C192   1.404       .  A
C187        H197   1.084       .  S
C188        C189   1.414       .  A
C188        C193   1.492       .  S
C189        C190   1.400       .  A
C189        S194   1.803       .  S
C190        C191   1.404       .  A
C190        H195   1.085       .  S
C191        C192   1.415       .  A
C192        S196   1.796       .  S
C193        C198   1.412       .  A
C193        C202   1.402       .  A
S194        H210   1.407       .  S
S196        H207   1.406       .  S
C198        C199   1.408       .  A
C198        S203   1.807       .  S
C199        C200   1.409       .  A
C199        H204   1.082       .  S
C200        C201   1.417       .  A
C201        C202   1.401       .  A
C201        S205   1.801       .  S
C202        H206   1.084       .  S
S203        H208   1.407       .  S
S205        H209   1.407       .  S
C211        C212   1.403       .  A
C211        C216   1.399       .  A
C211        H221   1.085       .  S
C212        C213   1.413       .  A
C212        C217   1.485       .  S
C213        C214   1.401       .  A
C213        S218   1.804       .  S
C214        C215   1.405       .  A
C214        H219   1.084       .  S
C215        C216   1.415       .  A
C216        S220   1.803       .  S
C217        C222   1.409       .  A
C217        C226   1.402       .  A
S218        H234   1.406       .  S
S220        H231   1.403       .  S
C222        C223   1.403       .  A
C222        S227   1.808       .  S
C223        C224   1.407       .  A
C223        H228   1.082       .  S
C224        C225   1.419       .  A
C225        C226   1.402       .  A
C225        S229   1.802       .  S
C226        H230   1.084       .  S
S227        H232   1.406       .  S
S229        H233   1.407       .  S
C235        C236   1.405       .  A
C235        C240   1.404       .  A
C235        H245   1.083       .  S
C236        C237   1.414       .  A
C236        C241   1.492       .  S
C237        C238   1.403   1_655  A
C237        S242   1.803       .  S
C238        C239   1.405       .  A
C238        H243   1.083       .  S
C239        C240   1.417   1_455  A
C240        S244   1.803   1_655  S
C241        C246   1.411       .  A
C241        C250   1.403       .  A
S242        H258   1.406       .  S
S244        H255   1.407       .  S
C246        C247   1.407       .  A
C246        S251   1.807       .  S
C247        C248   1.408       .  A
C247        H252   1.082       .  S
C248        C249   1.417       .  A
C249        C250   1.402       .  A
C249        S253   1.801       .  S
C250        H254   1.084       .  S
S251        H256   1.407       .  S
S253        H257   1.407       .  S
C259        C260   1.402       .  A
C259        C264   1.401       .  A
C259        H269   1.083       .  S
C260        C261   1.413       .  A
C260        C265   1.485       .  S
C261        C262   1.402       .  A
C261        S266   1.804       .  S
C262        C263   1.405       .  A
C262        H267   1.083       .  S
C263        C264   1.415       .  A
C264        S268   1.803       .  S
C265        C270   1.410       .  A
C265        C274   1.400       .  A
S266        H282   1.406       .  S
S268        H279   1.407       .  S
C270        C271   1.407   1_565  A
C270        S275   1.806       .  S
C271        C272   1.407       .  A
C271        H276   1.082       .  S
C272        C273   1.418       .  A
C273        C274   1.399   1_545  A
C273        S277   1.803       .  S
C274        H278   1.084       .  S
S275        H280   1.407   1_565  S
S277        H281   1.406       .  S
C283        C284   1.402       .  A
C283        C288   1.396       .  A
C283        H293   1.083       .  S
C284        C285   1.416       .  A
C284        C289   1.488       .  S
C285        C286   1.405       .  A
C285        S290   1.803       .  S
C286        C287   1.402       .  A
C286        H291   1.081       .  S
C287        C288   1.410       .  A
C288        S292   1.800       .  S
C289        C294   1.413       .  A
C289        C298   1.403       .  A
S290        H306   1.406       .  S
S292        H303   1.405       .  S
C294        C295   1.404       .  A
C294        S299   1.808       .  S
C295        C296   1.403       .  A
C295        H300   1.083       .  S
C296        C297   1.414       .  A
C297        C298   1.401       .  A
C297        S301   1.803       .  S
C298        H302   1.084       .  S
S299        H304   1.407       .  S
S301        H305   1.406       .  S
C307        C308   1.402       .  A
C307        C312   1.394       .  A
C307        H317   1.085       .  S
C308        C309   1.412       .  A
C308        C313   1.480       .  S
C309        C310   1.402       .  A
C309        S314   1.804       .  S
C310        C311   1.406       .  A
C310        H315   1.083       .  S
C311        C312   1.413       .  A
C312        S316   1.807       .  S
C313        C318   1.412       .  A
C313        C322   1.400       .  A
S314        H330   1.405       .  S
S316        H327   1.401       .  S
C318        C319   1.401       .  A
C318        S323   1.806       .  S
C319        C320   1.401       .  A
C319        H324   1.083       .  S
C320        C321   1.415       .  A
C321        C322   1.398       .  A
C321        S325   1.803       .  S
C322        H326   1.085       .  S
S323        H328   1.407       .  S
S325        H329   1.407       .  S
C331        C332   1.404       .  A
C331        C336   1.401       .  A
C331        H341   1.083       .  S
C332        C333   1.413       .  A
C332        C337   1.486       .  S
C333        C334   1.400       .  A
C333        S338   1.804       .  S
C334        C335   1.404       .  A
C334        H339   1.083       .  S
C335        C336   1.415       .  A
C336        S340   1.803       .  S
C337        C342   1.410       .  A
C337        C346   1.403       .  A
S338        H354   1.406       .  S
S340        H351   1.407       .  S
C342        C343   1.404       .  A
C342        S347   1.807       .  S
C343        C344   1.405       .  A
C343        H348   1.083       .  S
C344        C345   1.414       .  A
C345        C346   1.401       .  A
C345        S349   1.802       .  S
C346        H350   1.084       .  S
S347        H352   1.406       .  S
S349        H353   1.406       .  S
C355        C356   1.402       .  A
C355        C360   1.405       .  A
C355        H365   1.084       .  S
C356        C357   1.413       .  A
C356        C361   1.486       .  S
C357        C358   1.402       .  A
C357        S362   1.804       .  S
C358        C359   1.403       .  A
C358        H363   1.083       .  S
C359        C360   1.413       .  A
C360        S364   1.802       .  S
C361        C366   1.409       .  A
C361        C370   1.402       .  A
S362        H378   1.405       .  S
S364        H375   1.406       .  S
C366        C367   1.406       .  A
C366        S371   1.806       .  S
C367        C368   1.406       .  A
C367        H372   1.082       .  S
C368        C369   1.417       .  A
C369        C370   1.402       .  A
C369        S373   1.803       .  S
C370        H374   1.083       .  S
S371        H376   1.407       .  S
S373        H377   1.407       .  S
C379        C380   1.401       .  A
C379        C384   1.402       .  A
C379        H389   1.084       .  S
C380        C381   1.414       .  A
C380        C385   1.479       .  S
C381        C382   1.398       .  A
C381        S386   1.805       .  S
C382        C383   1.401       .  A
C382        H387   1.084       .  S
C383        C384   1.413       .  A
C384        S388   1.802       .  S
C385        C390   1.405       .  A
C385        C394   1.403       .  A
S386        H402   1.402       .  S
S388        H399   1.403       .  S
C390        C391   1.401       .  A
C390        S395   1.805       .  S
C391        C392   1.406       .  A
C391        H396   1.083       .  S
C392        C393   1.414       .  A
C393        C394   1.402       .  A
C393        S397   1.803       .  S
C394        H398   1.083       .  S
S395        H400   1.407       .  S
S397        H401   1.404       .  S
C403        C404   1.403       .  A
C403        C408   1.406       .  A
C403        H413   1.085       .  S
C404        C405   1.412       .  A
C404        C409   1.484       .  S
C405        C406   1.401       .  A
C405        S410   1.805       .  S
C406        C407   1.404   1_655  A
C406        H411   1.087       .  S
C407        C408   1.414   1_455  A
C408        S412   1.807   1_655  S
C409        C414   1.409       .  A
C409        C418   1.401       .  A
S410        H426   1.405       .  S
S412        H423   1.407       .  S
C414        C415   1.404       .  A
C414        S419   1.806       .  S
C415        C416   1.405       .  A
C415        H420   1.085       .  S
C416        C417   1.416       .  A
C417        C418   1.406       .  A
C417        S421   1.808       .  S
C418        H422   1.084       .  S
S419        H424   1.406       .  S
S421        H425   1.406       .  S
C427        C428   1.402       .  A
C427        C432   1.394       .  A
C427        H437   1.085       .  S
C428        C429   1.411       .  A
C428        C433   1.478       .  S
C429        C430   1.403       .  A
C429        S434   1.803       .  S
C430        C431   1.406       .  A
C430        H435   1.083       .  S
C431        C432   1.411       .  A
C432        S436   1.805       .  S
C433        C438   1.411       .  A
C433        C442   1.397       .  A
S434        H450   1.405       .  S
S436        H447   1.404       .  S
C438        C439   1.406       .  A
C438        S443   1.806       .  S
C439        C440   1.402       .  A
C439        H444   1.084       .  S
C440        C441   1.418       .  A
C441        C442   1.395       .  A
C441        S445   1.809       .  S
C442        H446   1.085       .  S
S443        H448   1.406       .  S
S445        H449   1.401       .  S
C451        C452   1.403       .  A
C451        C456   1.409       .  A
C451        H461   1.083       .  S
C452        C453   1.413       .  A
C452        C457   1.486       .  S
C453        C454   1.399       .  A
C453        S458   1.804       .  S
C454        C455   1.403       .  A
C454        H459   1.085       .  S
C455        C456   1.415       .  A
C456        S460   1.807       .  S
C457        C462   1.409       .  A
C457        C466   1.406       .  A
S458        H474   1.405       .  S
S460        H471   1.407   1_556  S
C462        C463   1.399   1_556  A
C462        S467   1.808   1_556  S
C463        C464   1.403   1_554  A
C463        H468   1.080       .  S
C464        C465   1.414       .  A
C465        C466   1.407       .  A
C465        S469   1.801       .  S
C466        H470   1.083       .  S
S467        H472   1.407       .  S
S469        H473   1.404       .  S
C475        C476   1.401       .  A
C475        C480   1.393       .  A
C475        H485   1.085       .  S
C476        C477   1.416       .  A
C476        C481   1.482       .  S
C477        C478   1.404       .  A
C477        S482   1.804       .  S
C478        C479   1.403       .  A
C478        H483   1.085       .  S
C479        C480   1.414       .  A
C480        S484   1.805       .  S
C481        C486   1.413       .  A
C481        C490   1.398       .  A
S482        H498   1.405       .  S
S484        H495   1.407       .  S
C486        C487   1.408       .  A
C486        S491   1.804       .  S
C487        C488   1.405       .  A
C487        H492   1.083       .  S
C488        C489   1.416       .  A
C489        C490   1.392       .  A
C489        S493   1.806       .  S
C490        H494   1.085       .  S
S491        H496   1.405       .  S
S493        H497   1.406       .  S
C499        C500   1.404       .  A
C499        C504   1.404       .  A
C499        H509   1.084       .  S
C500        C501   1.414       .  A
C500        C505   1.494       .  S
C501        C502   1.404       .  A
C501        S506   1.804       .  S
C502        C503   1.408       .  A
C502        H507   1.083       .  S
C503        C504   1.418       .  A
C504        S508   1.802       .  S
C505        C510   1.412       .  A
C505        C514   1.404       .  A
S506        H522   1.406       .  S
S508        H519   1.407       .  S
C510        C511   1.408       .  A
C510        S515   1.807       .  S
C511        C512   1.407       .  A
C511        H516   1.083       .  S
C512        C513   1.416       .  A
C513        C514   1.404       .  A
C513        S517   1.802       .  S
C514        H518   1.084       .  S
S515        H520   1.407       .  S
S517        H521   1.406       .  S
C523        C524   1.403   1_556  A
C523        C528   1.401       .  A
C523        H533   1.083       .  S
C524        C525   1.414       .  A
C524        C529   1.488       .  S
C525        C526   1.405       .  A
C525        S530   1.804       .  S
C526        C527   1.407   1_554  A
C526        H531   1.083       .  S
C527        C528   1.415       .  A
C528        S532   1.802       .  S
C529        C534   1.410       .  A
C529        C538   1.403       .  A
S530        H546   1.405       .  S
S532        H543   1.407       .  S
C534        C535   1.405   1_565  A
C534        S539   1.807       .  S
C535        C536   1.405       .  A
C535        H540   1.083       .  S
C536        C537   1.415       .  A
C537        C538   1.404   1_545  A
C537        S541   1.802   1_554  S
C538        H542   1.084   1_554  S
S539        H544   1.406       .  S
S541        H545   1.407       .  S
C547        C548   1.400       .  A
C547        C552   1.398       .  A
C547        H557   1.084       .  S
C548        C549   1.417       .  A
C548        C553   1.484       .  S
C549        C550   1.401       .  A
C549        S554   1.804       .  S
C550        C551   1.402       .  A
C550        H555   1.083       .  S
C551        C552   1.416       .  A
C552        S556   1.806       .  S
C553        C558   1.408       .  A
C553        C562   1.405       .  A
S554        H570   1.405       .  S
S556        H567   1.403       .  S
C558        C559   1.404       .  A
C558        S563   1.805       .  S
C559        C560   1.405       .  A
C559        H564   1.084       .  S
C560        C561   1.408       .  A
C561        C562   1.402       .  A
C561        S565   1.803       .  S
C562        H566   1.084       .  S
S563        H568   1.407       .  S
S565        H569   1.407       .  S
C571        C572   1.403       .  A
C571        C576   1.402       .  A
C571        H581   1.084       .  S
C572        C573   1.413       .  A
C572        C577   1.487       .  S
C573        C574   1.401       .  A
C573        S578   1.804       .  S
C574        C575   1.405       .  A
C574        H579   1.084       .  S
C575        C576   1.415       .  A
C576        S580   1.803       .  S
C577        C582   1.411       .  A
C577        C586   1.403       .  A
S578        H594   1.406       .  S
S580        H591   1.407       .  S
C582        C583   1.405       .  A
C582        S587   1.806       .  S
C583        C584   1.402       .  A
C583        H588   1.085       .  S
C584        C585   1.412       .  A
C585        C586   1.401       .  A
C585        S589   1.799       .  S
C586        H590   1.085       .  S
S587        H592   1.406       .  S
S589        H593   1.406       .  S
C595        C596   1.400       .  A
C595        C600   1.400       .  A
C595        H605   1.082       .  S
C596        C597   1.414       .  A
C596        C601   1.483       .  S
C597        C598   1.400       .  A
C597        S602   1.803       .  S
C598        C599   1.402       .  A
C598        H603   1.081       .  S
C599        C600   1.416       .  A
C600        S604   1.804   1_556  S
C601        C606   1.410       .  A
C601        C610   1.400       .  A
S602        H618   1.407       .  S
S604        H615   1.407       .  S
C606        C607   1.409       .  A
C606        S611   1.804       .  S
C607        C608   1.406       .  A
C607        H612   1.083       .  S
C608        C609   1.415       .  A
C609        C610   1.393       .  A
C609        S613   1.808       .  S
C610        H614   1.085       .  S
S611        H616   1.407       .  S
S613        H617   1.404       .  S
