geometry optimzed in LAMMPS
_audit_creation_date              2020-12-01 
_audit_creation_method            'lammps2cif' 
_symmetry_space_group_name_H-M    'P1' 
_symmetry_Int_Tables_number       1 
_symmetry_cell_setting            triclinic 
loop_ 
_symmetry_equiv_pos_as_xyz 
  x,y,z 
_cell_length_a                    40.23681836 
_cell_length_b                    40.38467783471283 
_cell_length_c                    49.0529775986239 
_cell_angle_alpha                 89.96408542620918 
_cell_angle_beta                  89.88310826401514 
_cell_angle_gamma                 119.75919166019162 
loop_ 
_atom_site_label 
_atom_site_type_symbol 
_atom_site_fract_x 
_atom_site_fract_y 
_atom_site_fract_z 
_atom_site_charge 
O1          O  0.39876034  0.42168919  0.29199131    -0.57300
C2          C  0.32074498  0.38223033  0.35196706     0.75300
O3          O  0.40164630  0.33403494  0.33984321    -0.58500
C4          C  0.43488684  0.43776286  0.29067175     0.75300
C5          C  0.44086776  0.43142654  0.38109009     0.77700
Cd6        Cd  0.39309857  0.39015650  0.33587717     1.37500
O7          O  0.34412654  0.40920730  0.33693794    -0.57300
O8          O  0.42738840  0.44592539  0.36477445    -0.56100
C9          C  0.38330661  0.31792643  0.31838846     0.77600
O10         O  0.43137446  0.39683867  0.37713880    -0.58500
O11         O  0.33015249  0.35795200  0.35921292    -0.56900
O12         O  0.45147696  0.43085370  0.30986889    -0.56900
O13         O  0.36900481  0.33486621  0.30536878    -0.56100
O14         O  0.69724223  0.07664971  0.99834625    -0.57300
C15         C  0.59515349  0.02084561  0.03618612     0.75300
O16         O  0.59869445  0.98552426  0.45230877    -0.58500
C17         C  0.71674399  0.07225724  0.47990488     0.75300
C18         C  0.64497846  0.94771057  0.00797443     0.77700
Cd19       Cd  0.63948634  0.01389289  0.49263350     1.37500
O20         O  0.63002563  0.04550046  0.03270930    -0.57300
O21         O  0.65559955  0.97595185  0.02376185    -0.56100
C22         C  0.59851799  0.01548720  0.44502673     0.77600
O23         O  0.63224881  0.95024783  0.48497892    -0.58500
O24         O  0.58094537  0.99313101  0.01972999    -0.56900
O25         O  0.70111682  0.04025188  0.46811453    -0.56900
O26         O  0.61710327  0.04457584  0.45980543    -0.56100
O27         O  0.07677316  0.39170699  0.43104440    -0.57300
C28         C  0.01805543  0.43748564  0.46732180     0.75300
O29         O  0.99298895  0.40343214  0.37873115    -0.58500
C30         C  0.07998361  0.38164239  0.40718595     0.75300
C31         C  0.95440203  0.31626394  0.43254848     0.77700
Cd32       Cd  0.01684641  0.39180296  0.42187735     1.37500
O33         O  0.98797163  0.41750033  0.45368465    -0.57300
O34         O  0.98648521  0.32855479  0.44408579    -0.56100
C35         C  0.01880939  0.43810917  0.37691410     0.77600
O36         O  0.95148512  0.33861265  0.41588167    -0.58500
O37         O  0.04735106  0.43545267  0.46054586    -0.56900
O38         O  0.05326444  0.37483326  0.39068167    -0.56900
O39         O  0.04310536  0.45112748  0.39592328    -0.56100
O40         O  0.34317452  0.95062893  0.24446365    -0.57300
C41         C  0.44148976  0.01399292  0.28470072     0.75300
O42         O  0.43645130  0.05497279  0.20350071    -0.58500
C43         C  0.31965718  0.95392331  0.22916676     0.75300
C44         C  0.38421984  0.08141572  0.25692637     0.77700
Cd45       Cd  0.39401931  0.01805585  0.24161773     1.37500
O46         O  0.40690840  0.00471306  0.28882575    -0.57300
O47         O  0.36310064  0.04851056  0.26675504    -0.56100
C48         C  0.43519117  0.02644035  0.19181132     0.77600
O49         O  0.40905626  0.08481587  0.23963104    -0.58500
O50         O  0.45369582  0.02412787  0.26071906    -0.56900
O51         O  0.33016940  0.98689466  0.21982934    -0.56900
O52         O  0.41385938  0.99412612  0.20254621    -0.56100
O53         O  0.63351289  0.61224519  0.03958307    -0.57300
C54         C  0.70491440  0.64127866  0.10311048     0.75300
O55         O  0.61282881  0.68351987  0.08107646    -0.58500
C56         C  0.59741369  0.59319552  0.03791600     0.75300
C57         C  0.58773140  0.60154846  0.13349076     0.77700
Cd58       Cd  0.63424401  0.63658818  0.08610071     1.37500
O59         O  0.68099630  0.61409974  0.08848814    -0.57300
O60         O  0.59468105  0.58279510  0.11600793    -0.56100
C61         C  0.64322820  0.70914623  0.07010862     0.77600
O62         O  0.60284920  0.63708722  0.12946700    -0.58500
O63         O  0.69637374  0.66646337  0.10957823    -0.56900
O64         O  0.57882833  0.59385835  0.05849912    -0.56900
O65         O  0.66987271  0.70145936  0.06685336    -0.56100
O66         O  0.94599626  0.61984502  0.17923473    -0.57300
C67         C  0.01508269  0.59367361  0.21785696     0.75300
O68         O  0.04779605  0.62520406  0.13515682    -0.58500
C69         C  0.94521293  0.64222791  0.16153645     0.75300
C70         C  0.07467328  0.71442131  0.18340343     0.77700
Cd71       Cd  0.01344391  0.63790659  0.17190945     1.37500
O72         O  0.99495572  0.60970364  0.21813001    -0.57300
O73         O  0.04673536  0.69638420  0.19938937    -0.56100
C74         C  0.01820083  0.59815026  0.12437395     0.77600
O75         O  0.07364917  0.69786699  0.16127077    -0.58500
O76         O  0.03372095  0.59731885  0.19622419    -0.56900
O77         O  0.97625031  0.66316756  0.14895882    -0.56900
O78         O  0.98650309  0.58957005  0.13543948    -0.56100
C79         C  0.90975425  0.64335611  0.15538138     0.01800
C80         C  0.91099493  0.67868468  0.15175274     0.04700
C81         C  0.87802668  0.67959809  0.14335082    -0.11400
C82         C  0.84324634  0.64532923  0.13989662     0.24000
C83         C  0.84138355  0.61013192  0.14491535    -0.12000
C84         C  0.87464779  0.60901138  0.15206723     0.05400
C85         C  0.80865934  0.64602956  0.13035419     0.27800
C86         C  0.78444865  0.64990913  0.14924227    -0.12700
C87         C  0.75066598  0.64866943  0.14028948     0.05900
C88         C  0.74084374  0.64336772  0.11237956    -0.08600
C89         C  0.76531675  0.63972269  0.09345883     0.06700
C90         C  0.79927347  0.64131882  0.10244404    -0.13000
Br91       Br  0.79306661  0.56338798  0.14148534    -0.05100
Br92       Br  0.95714137  0.72599156  0.15964983     0.00600
Br93       Br  0.71681739  0.65179868  0.16670608     0.01000
Br94       Br  0.83322034  0.63712931  0.07660121    -0.03400
Br95       Br  0.87209951  0.56012201  0.15526116     0.01100
Br96       Br  0.88046979  0.72768620  0.13591352    -0.02700
Br97       Br  0.79733380  0.65610787  0.18748463    -0.03500
Br98       Br  0.75315749  0.63376463  0.05508453     0.00400
C99         C  0.10753745  0.75208886  0.19070909     0.01800
C100        C  0.12280015  0.78247456  0.17174200     0.04700
C101        C  0.15581695  0.81719389  0.17828794    -0.11400
C102        C  0.17381920  0.82160106  0.20368607     0.24000
C103        C  0.15784709  0.79192679  0.22300429    -0.12000
C104        C  0.12484996  0.75727540  0.21660946     0.05400
C105        C  0.21103319  0.85628287  0.20946177     0.27800
C106        C  0.24535807  0.85633587  0.20364441    -0.12700
C107        C  0.28082996  0.88859923  0.20963768     0.05900
C108        C  0.28218717  0.92070105  0.22210993    -0.08600
C109        C  0.24776924  0.92067359  0.22789225     0.06700
C110        C  0.21224549  0.88854303  0.22145913    -0.13000
Br111      Br  0.18217338  0.79855058  0.25802485    -0.05100
Br112      Br  0.09808532  0.77721478  0.13705438     0.00600
Br113      Br  0.32761964  0.88942754  0.19951601     0.01000
Br114      Br  0.16506995  0.88809032  0.22955585    -0.03400
Br115      Br  0.10542381  0.71623862  0.24290889     0.01100
Br116      Br  0.17692918  0.85878102  0.15247264    -0.02700
Br117      Br  0.24356645  0.81170783  0.18786116    -0.03500
Br118      Br  0.24903997  0.96368775  0.24593257     0.00400
C119        C  0.01722372  0.57225239  0.24163515     0.01800
C120        C  0.98343428  0.54391430  0.25430304     0.04700
C121        C  0.98575606  0.52356067  0.27682375    -0.11400
C122        C  0.02171395  0.53091007  0.28648986     0.24000
C123        C  0.05545461  0.55927605  0.27403770    -0.12000
C124        C  0.05325137  0.58021285  0.25185572     0.05400
C125        C  0.02370379  0.50842562  0.30968776     0.27800
C126        C  0.02426738  0.52073423  0.33662032    -0.12700
C127        C  0.02300578  0.49786188  0.35866657     0.05900
C128        C  0.02072827  0.46234407  0.35379635    -0.08600
C129        C  0.02109525  0.45047628  0.32680009     0.06700
C130        C  0.02297364  0.47370721  0.30480349    -0.13000
Br131      Br  0.10462121  0.56933409  0.28750828    -0.05100
Br132      Br  0.93383626  0.53141006  0.24015377     0.00600
Br133      Br  0.02239778  0.51449147  0.39548977     0.01000
Br134      Br  0.02486169  0.45829745  0.26787491    -0.03400
Br135      Br  0.09977273  0.62131202  0.23662896     0.01100
Br136      Br  0.93969677  0.48535124  0.29460685    -0.02700
Br137      Br  0.02620637  0.56875626  0.34317990    -0.03500
Br138      Br  0.02048575  0.40311605  0.31982838     0.00400
C139        C  0.02051761  0.57742203  0.10021727     0.01800
C140        C  0.04459779  0.56123326  0.10047223     0.04700
C141        C  0.04555436  0.54020909  0.07789436    -0.11400
C142        C  0.02212658  0.53483888  0.05514204     0.24000
C143        C  0.99871825  0.55163070  0.05455824    -0.12000
C144        C  0.99799001  0.57301042  0.07698198     0.05400
C145        C  0.02088602  0.51010217  0.03235435     0.27800
C146        C  0.04758931  0.52535877  0.01086947    -0.12700
C147        C  0.04696648  0.50149773  0.98973271     0.05900
C148        C  0.01905326  0.46237371  0.48974308    -0.08600
C149        C  0.99169919  0.44737478  0.51094367     0.06700
C150        C  0.99297736  0.47112115  0.03237018    -0.13000
Br151      Br  0.96752420  0.54497747  0.02294846    -0.05100
Br152      Br  0.07446146  0.56549437  0.13238386     0.00600
Br153      Br  0.08321312  0.52307307  0.96008153     0.01000
Br154      Br  0.95674081  0.45033404  0.56205090    -0.03400
Br155      Br  0.96718571  0.59740349  0.07531486     0.01100
Br156      Br  0.07836923  0.51797378  0.07815087    -0.02700
Br157      Br  0.08455435  0.57913641  0.01031755    -0.03500
Br158      Br  0.95313923  0.39404344  0.51127414     0.00400
C159        C  0.46643478  0.01340426  0.30671056     0.01800
C160        C  0.50373672  0.04478421  0.31039350     0.04700
C161        C  0.52694608  0.04450484  0.33174675    -0.11400
C162        C  0.51266649  0.01360615  0.35007393     0.24000
C163        C  0.47576368  0.98211061  0.34628651    -0.12000
C164        C  0.45294339  0.98168860  0.32441502     0.05400
C165        C  0.53569984  0.01510895  0.37414184     0.27800
C166        C  0.56150611  0.00114850  0.37245353    -0.12700
C167        C  0.58265383  0.00199141  0.39552714     0.05900
C168        C  0.57771442  0.01641042  0.42050186    -0.08600
C169        C  0.55275826  0.03154479  0.42190809     0.06700
C170        C  0.53188011  0.03091062  0.39874474    -0.13000
Br171      Br  0.45639448  0.93977306  0.37143196    -0.05100
Br172      Br  0.52250956  0.08958809  0.28762411     0.00600
Br173      Br  0.62030110  0.98576870  0.39234100     0.02200
Br174      Br  0.49791197  0.05175315  0.40053726    -0.03400
Br175      Br  0.40397657  0.93673567  0.31806460     0.01100
Br176      Br  0.57827332  0.08669503  0.33638754    -0.02700
Br177      Br  0.56820185  0.98141622  0.33835455    -0.03500
Br178      Br  0.54584915  0.05197877  0.45569968     0.00400
C179        C  0.45819753  0.03039482  0.16728790     0.01800
C180        C  0.49847594  0.05292818  0.16818336     0.04700
C181        C  0.52070105  0.05271632  0.14605728    -0.11400
C182        C  0.50275159  0.03089239  0.12267808     0.24000
C183        C  0.46246528  0.00991902  0.12125020    -0.12000
C184        C  0.44023385  0.00942348  0.14360116     0.05400
C185        C  0.52629328  0.02842993  0.10025391     0.27800
C186        C  0.54308570  0.05763073  0.08054179    -0.12700
C187        C  0.56638983  0.05565340  0.05986657     0.05900
C188        C  0.57209040  0.02392779  0.05843155    -0.08600
C189        C  0.55505908  0.99462087  0.07805062     0.06700
C190        C  0.53251380  0.99704926  0.09905104    -0.13000
Br191      Br  0.43787883  0.98121462  0.08884378    -0.05100
Br192      Br  0.52350499  0.08232701  0.20031564     0.00600
Br193      Br  0.58944514  0.09580996  0.03301015     0.01000
Br194      Br  0.51047616  0.95762400  0.12649965    -0.03400
Br195      Br  0.38506755  0.98066825  0.14158889     0.01100
Br196      Br  0.57586611  0.08074957  0.14823036    -0.02700
Br197      Br  0.53356090  0.09995621  0.08174104    -0.03500
Br198      Br  0.56405852  0.95191375  0.07689462     0.00400
C199        C  0.64710052  0.91346751  0.01610317     0.01800
C200        C  0.61526228  0.87660621  0.01226654     0.04700
C201        C  0.61696246  0.84422536  0.02084045    -0.11400
C202        C  0.65017024  0.84842753  0.03354182     0.24000
C203        C  0.68211408  0.88499528  0.03709653    -0.12000
C204        C  0.68074676  0.91745549  0.02821548     0.05400
C205        C  0.65097573  0.81418744  0.04355124     0.27800
C206        C  0.63742112  0.80010013  0.06991307    -0.12700
C207        C  0.63566260  0.76617184  0.07886466     0.05900
C208        C  0.64715396  0.74594498  0.06129847    -0.08600
C209        C  0.66119295  0.76043126  0.03496554     0.06700
C210        C  0.66335522  0.79464949  0.02623615    -0.13000
Br211      Br  0.72762504  0.89035172  0.05427104    -0.05100
Br212      Br  0.56829256  0.87003004  0.99675986     0.00600
Br213      Br  0.61849590  0.74826524  0.11553107     0.01000
Br214      Br  0.68227779  0.81447444  0.49025144    -0.03400
Br215      Br  0.72581950  0.96712627  0.03147615     0.01100
Br216      Br  0.57360294  0.79378959  0.01563026    -0.02700
Br217      Br  0.62064099  0.82718479  0.09353113    -0.03500
Br218      Br  0.67470963  0.73216567  0.00984303     0.00400
C219        C  0.75523403  0.10345704  0.47208182     0.01800
C220        C  0.78221558  0.12513199  0.49235409     0.04700
C221        C  0.81724458  0.15719110  0.48498006    -0.11400
C222        C  0.82525053  0.16811332  0.45742169     0.24000
C223        C  0.79929439  0.14559776  0.43704699    -0.12000
C224        C  0.76432302  0.11331560  0.44428173     0.05400
C225        C  0.85852501  0.20570671  0.45031104     0.27800
C226        C  0.85466686  0.23845988  0.45182392    -0.12700
C227        C  0.88614529  0.27458402  0.44620639     0.05900
C228        C  0.92161320  0.27812287  0.43861486    -0.08600
C229        C  0.92540053  0.24522028  0.43684593     0.06700
C230        C  0.89377918  0.20901848  0.44257856    -0.13000
Br231      Br  0.81107810  0.16039433  0.39928171    -0.05100
Br232      Br  0.77150848  0.11122070  0.03034791     0.00600
Br233      Br  0.88101358  0.31936254  0.45068154     0.01000
Br234      Br  0.89830923  0.16380734  0.43948710    -0.03400
Br235      Br  0.72769401  0.08520082  0.41601335     0.01100
Br236      Br  0.85401856  0.18719047  0.01261795    -0.02700
Br237      Br  0.80590729  0.23360703  0.46158580    -0.03500
Br238      Br  0.97337207  0.24939603  0.42567017     0.00400
C239        C  0.46673020  0.45431240  0.40330764     0.01800
C240        C  0.45895117  0.44122975  0.43050317     0.04700
C241        C  0.48195667  0.46483119  0.45172902    -0.11400
C242        C  0.51302926  0.50126771  0.44581670     0.24000
C243        C  0.52161399  0.51387507  0.41863023    -0.12000
C244        C  0.49855648  0.49045395  0.39738073     0.05400
C245        C  0.53624403  0.52647184  0.46835192     0.27800
C246        C  0.52627536  0.55222693  0.47996623    -0.12700
C247        C  0.54737367  0.57519889  0.00202589     0.05900
C248        C  0.57754582  0.57133184  0.01330023    -0.08600
C249        C  0.58751276  0.54550117  0.50157405     0.06700
C250        C  0.56732407  0.52368185  0.47878691    -0.13000
Br251      Br  0.56487805  0.56341084  0.41065338    -0.05100
Br252      Br  0.41578556  0.39186486  0.43901858     0.00600
Br253      Br  0.53570237  0.61302090  0.01597819     0.01000
Br254      Br  0.58152980  0.48926157  0.46202046    -0.03400
Br255      Br  0.51173129  0.50736625  0.36004536     0.01100
Br256      Br  0.47049370  0.44790776  0.48911573    -0.02700
Br257      Br  0.48300723  0.55518981  0.46598226    -0.03500
Br258      Br  0.62663413  0.53756838  0.01785829     0.00400
C259        C  0.45663088  0.46377578  0.26809647     0.01800
C260        C  0.44895787  0.49301915  0.26033412     0.04700
C261        C  0.46945676  0.51771006  0.23872875    -0.11400
C262        C  0.49785088  0.51350503  0.22498327     0.24000
C263        C  0.50598997  0.48476451  0.23292735    -0.12000
C264        C  0.48551821  0.45996789  0.25448483     0.05400
C265        C  0.51903981  0.53894380  0.20189799     0.27800
C266        C  0.50389378  0.52958845  0.17538619    -0.12700
C267        C  0.52601075  0.55095760  0.15301046     0.05900
C268        C  0.56294430  0.58237512  0.15719088    -0.08600
C269        C  0.57667806  0.59365631  0.18394950     0.06700
C270        C  0.55503135  0.57149679  0.20626225    -0.13000
Br271      Br  0.54504426  0.47923667  0.21392892    -0.05100
Br272      Br  0.41209888  0.50105003  0.28025980     0.00600
Br273      Br  0.50520710  0.53783652  0.11665474     0.01000
Br274      Br  0.57498317  0.58484220  0.24280324    -0.03400
Br275      Br  0.49635148  0.42001309  0.26444568     0.01100
Br276      Br  0.45886955  0.55746207  0.22784274    -0.02700
Br277      Br  0.45293465  0.48725492  0.16984690    -0.03500
Br278      Br  0.62561610  0.63846089  0.19018383     0.00400
C279        C  0.28468866  0.37988615  0.36089556     0.01800
C280        C  0.24921226  0.34789135  0.35417152     0.04700
C281        C  0.21491333  0.34652925  0.36203615    -0.11400
C282        C  0.21607445  0.37726670  0.37641809     0.24000
C283        C  0.25152453  0.40918354  0.38322391    -0.12000
C284        C  0.28578985  0.41042285  0.37558426     0.05400
C285        C  0.18008652  0.37672109  0.38368208     0.27800
C286        C  0.16717976  0.39683011  0.36745086    -0.12700
C287        C  0.13424464  0.39825765  0.37506782     0.05900
C288        C  0.11370589  0.37893948  0.39874282    -0.08600
C289        C  0.12600507  0.35783416  0.41450705     0.06700
C290        C  0.15932154  0.35694817  0.40706953    -0.13000
Br291      Br  0.25300152  0.45143187  0.40271309    -0.05100
Br292      Br  0.24751639  0.30709515  0.33268233     0.00600
Br293      Br  0.11892227  0.42873786  0.35382128     0.01000
Br294      Br  0.17672402  0.32879410  0.42890739    -0.03400
Br295      Br  0.33427305  0.45354668  0.38599568     0.01100
Br296      Br  0.16621116  0.30307374  0.35260814    -0.02700
Br297      Br  0.19505906  0.42277586  0.33488912    -0.03500
Br298      Br  0.09636579  0.32873084  0.44559165     0.00400
C299        C  0.37913659  0.28139008  0.30883233     0.01800
C300        C  0.36550475  0.24989967  0.32672353     0.04700
C301        C  0.36285068  0.21556012  0.31780952    -0.11400
C302        C  0.37394596  0.21265234  0.29107909     0.24000
C303        C  0.38628613  0.24355484  0.27290791    -0.12000
C304        C  0.38919973  0.27798776  0.28179113     0.05400
C305        C  0.37581688  0.17838584  0.28272307     0.27800
C306        C  0.41030371  0.17784933  0.28608298    -0.12700
C307        C  0.41276983  0.14582271  0.27791102     0.05900
C308        C  0.38098971  0.11452748  0.26579219    -0.08600
C309        C  0.34650108  0.11510761  0.26228167     0.06700
C310        C  0.34382729  0.14692925  0.27096441    -0.13000
Br311      Br  0.39994814  0.23868217  0.23596727    -0.05100
Br312      Br  0.34958324  0.25334008  0.36326423     0.00600
Br313      Br  0.45925406  0.14418800  0.28443985     0.01000
Br314      Br  0.29668720  0.14787036  0.26651771    -0.03400
Br315      Br  0.40985229  0.32121223  0.25737492     0.01100
Br316      Br  0.34428664  0.17241239  0.34215234    -0.02700
Br317      Br  0.45431600  0.22132751  0.30169702    -0.03500
Br318      Br  0.30370175  0.07335555  0.24422941     0.00400
O319        O  0.39876055  0.42168933  0.79199135    -0.57300
C320        C  0.32074507  0.38223036  0.85196692     0.75300
O321        O  0.40164611  0.33403481  0.83984323    -0.58500
C322        C  0.43488697  0.43776306  0.79067187     0.75300
C323        C  0.44086783  0.43142648  0.88109010     0.77700
Cd324      Cd  0.39309867  0.39015653  0.83587714     1.37500
O325        O  0.34412641  0.40920700  0.83693740    -0.57300
O326        O  0.42738809  0.44592529  0.86477464    -0.56100
C327        C  0.38330678  0.31792646  0.81838844     0.77600
O328        O  0.43137490  0.39683883  0.87713857    -0.58500
O329        O  0.33015281  0.35795239  0.85921317    -0.56900
O330        O  0.45147715  0.43085396  0.80986904    -0.56900
O331        O  0.36900520  0.33486644  0.80536855    -0.56100
O332        O  0.69724191  0.07665044  0.49834608    -0.57300
C333        C  0.59515345  0.02084597  0.53618614     0.75300
O334        O  0.59869436  0.98552401  0.95230868    -0.58500
C335        C  0.71674389  0.07225688  0.97990476     0.75300
C336        C  0.64497862  0.94771108  0.50797472     0.77700
Cd337      Cd  0.63948626  0.01389248  0.99263341     1.37500
O338        O  0.63002567  0.04550077  0.53270947    -0.57300
O339        O  0.65559944  0.97595209  0.52376194    -0.56100
C340        C  0.59851769  0.01548666  0.94502668     0.77600
O341        O  0.63224869  0.95024739  0.98497893    -0.58500
O342        O  0.58094534  0.99313154  0.51972997    -0.56900
O343        O  0.70111629  0.04025157  0.96811393    -0.56900
O344        O  0.61710297  0.04457550  0.95980554    -0.56100
O345        O  0.07677312  0.39170686  0.93104454    -0.57300
C346        C  0.01805557  0.43748537  0.96732185     0.75300
O347        O  0.99298898  0.40343202  0.87873128    -0.58500
C348        C  0.07998373  0.38164240  0.90718613     0.75300
C349        C  0.95440164  0.31626364  0.93254845     0.77700
Cd350      Cd  0.01684628  0.39180264  0.92187746     1.37500
O351        O  0.98797222  0.41750172  0.95368387    -0.57300
O352        O  0.98648509  0.32855429  0.94408567    -0.56100
C353        C  0.01880952  0.43810887  0.87691414     0.77600
O354        O  0.95148481  0.33861249  0.91588199    -0.58500
O355        O  0.04735053  0.43545073  0.96054680    -0.56900
O356        O  0.05326454  0.37483319  0.89068178    -0.56900
O357        O  0.04310570  0.45112718  0.89592328    -0.56100
O358        O  0.34317440  0.95062875  0.74446355    -0.57300
C359        C  0.44148933  0.01399270  0.78470087     0.75300
O360        O  0.43645103  0.05497307  0.70350080    -0.58500
C361        C  0.31965706  0.95392322  0.72916662     0.75300
C362        C  0.38421960  0.08141557  0.75692642     0.77700
Cd363      Cd  0.39401913  0.01805578  0.74161777     1.37500
O364        O  0.40690824  0.00471338  0.78882591    -0.57300
O365        O  0.36309960  0.04851020  0.76675436    -0.56100
C366        C  0.43519101  0.02644061  0.69181135     0.77600
O367        O  0.40905695  0.08481604  0.73963173    -0.58500
O368        O  0.45369540  0.02412723  0.76071905    -0.56900
O369        O  0.33016930  0.98689453  0.71982928    -0.56900
O370        O  0.41385938  0.99412644  0.70254619    -0.56100
O371        O  0.63351280  0.61224514  0.53958310    -0.57300
C372        C  0.70491435  0.64127904  0.60311051     0.75300
O373        O  0.61282839  0.68351979  0.58107635    -0.58500
C374        C  0.59741373  0.59319560  0.53791594     0.75300
C375        C  0.58773131  0.60154845  0.63349075     0.77700
Cd376      Cd  0.63424385  0.63658825  0.58610070     1.37500
O377        O  0.68099597  0.61409962  0.58848853    -0.57300
O378        O  0.59468103  0.58279518  0.61600797    -0.56100
C379        C  0.64322765  0.70914619  0.57010862     0.77600
O380        O  0.60284902  0.63708725  0.62946701    -0.58500
O381        O  0.69637392  0.66646395  0.60957778    -0.56900
O382        O  0.57882822  0.59385846  0.55849907    -0.56900
O383        O  0.66987240  0.70145950  0.56685340    -0.56100
O384        O  0.94599636  0.61984609  0.67923548    -0.57300
C385        C  0.01508295  0.59367370  0.71785706     0.75300
O386        O  0.04779517  0.62520532  0.63515586    -0.58500
C387        C  0.94521283  0.64222833  0.66153670     0.75300
C388        C  0.07467308  0.71442120  0.68340358     0.77700
Cd389      Cd  0.01344362  0.63790656  0.67190965     1.37500
O390        O  0.99495579  0.60970341  0.71813019    -0.57300
O391        O  0.04673463  0.69638435  0.69938948    -0.56100
C392        C  0.01819972  0.59814977  0.62437409     0.77600
O393        O  0.07364932  0.69786660  0.66127138    -0.58500
O394        O  0.03372140  0.59731925  0.69622430    -0.56900
O395        O  0.97624987  0.66316711  0.64895852    -0.56900
O396        O  0.98650257  0.58956828  0.63544080    -0.56100
C397        C  0.90975412  0.64335660  0.65538176     0.01800
C398        C  0.91099508  0.67868519  0.65175235     0.04700
C399        C  0.87802679  0.67959855  0.64335040    -0.11400
C400        C  0.84324623  0.64532970  0.63989698     0.24000
C401        C  0.84138317  0.61013247  0.64491656    -0.12000
C402        C  0.87464742  0.60901193  0.65206848     0.05400
C403        C  0.80865920  0.64602994  0.63035444     0.27800
C404        C  0.78444886  0.64991028  0.64924236    -0.12700
C405        C  0.75066622  0.64867061  0.64028950     0.05900
C406        C  0.74084370  0.64336806  0.61237960    -0.08600
C407        C  0.76531633  0.63972220  0.59345906     0.06700
C408        C  0.79927305  0.64131835  0.60244434    -0.13000
Br409      Br  0.79306592  0.56338863  0.64148768    -0.05100
Br410      Br  0.95714187  0.72599218  0.65964849     0.00600
Br411      Br  0.71681814  0.65180104  0.66670591     0.01000
Br412      Br  0.83321941  0.63712762  0.57660171    -0.03400
Br413      Br  0.87209863  0.56012244  0.65526372     0.01100
Br414      Br  0.88047020  0.72768654  0.63591201    -0.02700
Br415      Br  0.79733433  0.65610995  0.68748468    -0.03500
Br416      Br  0.75315665  0.63376294  0.55508482     0.00400
C417        C  0.10753703  0.75208874  0.69070947     0.01800
C418        C  0.12279962  0.78247441  0.67174221     0.04700
C419        C  0.15581645  0.81719374  0.67828811    -0.11400
C420        C  0.17381879  0.82160103  0.70368618     0.24000
C421        C  0.15784677  0.79192680  0.72300450    -0.12000
C422        C  0.12484956  0.75727543  0.71660970     0.05400
C423        C  0.21103287  0.85628284  0.70946179     0.27800
C424        C  0.24535768  0.85633569  0.70364442    -0.12700
C425        C  0.28082963  0.88859904  0.70963763     0.05900
C426        C  0.28218700  0.92070092  0.72210981    -0.08600
C427        C  0.24776913  0.92067365  0.72789212     0.06700
C428        C  0.21224531  0.88854311  0.72145906    -0.13000
Br429      Br  0.18217332  0.79855058  0.75802492    -0.05100
Br430      Br  0.09808453  0.77721438  0.63705471     0.00600
Br431      Br  0.32761921  0.88942713  0.69951592     0.01000
Br432      Br  0.16506988  0.88809063  0.72955578    -0.03400
Br433      Br  0.10542324  0.71623875  0.74290926     0.01100
Br434      Br  0.17692861  0.85878066  0.65247263    -0.02700
Br435      Br  0.24356586  0.81170752  0.68786126    -0.03500
Br436      Br  0.24904006  0.96368799  0.74593229     0.00400
C437        C  0.01722407  0.57225226  0.74163516     0.01800
C438        C  0.98343457  0.54391357  0.75430260     0.04700
C439        C  0.98575632  0.52355972  0.77682323    -0.11400
C440        C  0.02171420  0.53090969  0.78648971     0.24000
C441        C  0.05545489  0.55927624  0.77403797    -0.12000
C442        C  0.05325165  0.58021313  0.75185600     0.05400
C443        C  0.02370403  0.50842526  0.80968772     0.27800
C444        C  0.02426713  0.52073374  0.83662026    -0.12700
C445        C  0.02300563  0.49786144  0.85866656     0.05900
C446        C  0.02072853  0.46234388  0.85379640    -0.08600
C447        C  0.02109586  0.45047613  0.82680016     0.06700
C448        C  0.02297436  0.47370709  0.80480352    -0.13000
Br449      Br  0.10462149  0.56933504  0.78750904    -0.05100
Br450      Br  0.93383664  0.53140892  0.74015294     0.00600
Br451      Br  0.02239728  0.51449087  0.89548978     0.01000
Br452      Br  0.02486324  0.45829757  0.76787502    -0.03400
Br453      Br  0.09977296  0.62131289  0.73662967     0.01100
Br454      Br  0.93969694  0.48534925  0.79460560    -0.02700
Br455      Br  0.02620529  0.56875537  0.84317977    -0.03500
Br456      Br  0.02048661  0.40311601  0.81982860     0.00400
C457        C  0.02051658  0.57742164  0.60021745     0.01800
C458        C  0.04459839  0.56123483  0.60047156     0.04700
C459        C  0.04555509  0.54021084  0.57789366    -0.11400
C460        C  0.02212552  0.53483869  0.55514199     0.24000
C461        C  0.99871539  0.55162852  0.55455902    -0.12000
C462        C  0.99798704  0.57300808  0.57698277     0.05400
C463        C  0.02088517  0.51010212  0.53235435     0.27800
C464        C  0.04758718  0.52535927  0.51086871    -0.12700
C465        C  0.04696466  0.50149839  0.48973200     0.05900
C466        C  0.01905364  0.46237358  0.98974317    -0.08600
C467        C  0.99169840  0.44737524  0.01094299     0.06700
C468        C  0.99297802  0.47112054  0.53237087    -0.13000
Br469      Br  0.96751899  0.54497280  0.52295014    -0.05100
Br470      Br  0.07446456  0.56549846  0.63238234     0.00600
Br471      Br  0.08320982  0.52307447  0.46008001     0.01000
Br472      Br  0.95673817  0.45033547  0.06204909    -0.03400
Br473      Br  0.96718011  0.59739836  0.57531672     0.01100
Br474      Br  0.07837253  0.51797843  0.57814902    -0.02700
Br475      Br  0.08455001  0.57913754  0.51031583    -0.03500
Br476      Br  0.95313653  0.39404457  0.01127253     0.00400
C477        C  0.46643447  0.01340410  0.80671062     0.01800
C478        C  0.50373638  0.04478391  0.81039355     0.04700
C479        C  0.52694578  0.04450453  0.83174676    -0.11400
C480        C  0.51266614  0.01360580  0.85007398     0.24000
C481        C  0.47576332  0.98211032  0.84628652    -0.12000
C482        C  0.45294299  0.98168834  0.82441508     0.05400
C483        C  0.53569950  0.01510857  0.87414185     0.27800
C484        C  0.56150565  0.00114800  0.87245360    -0.12700
C485        C  0.58265344  0.00199092  0.89552713     0.05900
C486        C  0.57771417  0.01641018  0.92050193    -0.08600
C487        C  0.55275817  0.03154463  0.92190804     0.06700
C488        C  0.53187994  0.03091044  0.89874477    -0.13000
Br489      Br  0.45639411  0.93977264  0.87143187    -0.05100
Br490      Br  0.52250929  0.08958774  0.78762407     0.00600
Br491      Br  0.62030065  0.98576817  0.89234098     0.02200
Br492      Br  0.49791197  0.05175315  0.90053726    -0.03400
Br493      Br  0.40397612  0.93673555  0.81806461     0.01100
Br494      Br  0.57827306  0.08669462  0.83638749    -0.02700
Br495      Br  0.56820117  0.98141546  0.83835464    -0.03500
Br496      Br  0.54584935  0.05197900  0.95569960     0.00400
C497        C  0.45819745  0.03039533  0.66728793     0.01800
C498        C  0.49847580  0.05292872  0.66818337     0.04700
C499        C  0.52070096  0.05271691  0.64605728    -0.11400
C500        C  0.50275149  0.03089278  0.62267816     0.24000
C501        C  0.46246521  0.00991934  0.62125028    -0.12000
C502        C  0.44023373  0.00942387  0.64360121     0.05400
C503        C  0.52629324  0.02843030  0.60025396     0.27800
C504        C  0.54308559  0.05763110  0.58054184    -0.12700
C505        C  0.56638974  0.05565375  0.55986659     0.05900
C506        C  0.57209031  0.02392820  0.55843160    -0.08600
C507        C  0.55505904  0.99462125  0.57805064     0.06700
C508        C  0.53251372  0.99704965  0.59905109    -0.13000
Br509      Br  0.43787873  0.98121472  0.58884396    -0.05100
Br510      Br  0.52350482  0.08232758  0.70031566     0.00600
Br511      Br  0.58944499  0.09581030  0.53301017     0.01000
Br512      Br  0.51047608  0.95762431  0.62649965    -0.03400
Br513      Br  0.38506745  0.98066863  0.64158896     0.01100
Br514      Br  0.57586600  0.08075053  0.64823027    -0.02700
Br515      Br  0.53356076  0.09995654  0.58174106    -0.03500
Br516      Br  0.56405853  0.95191418  0.57689463     0.00400
C517        C  0.64710031  0.91346772  0.51610321     0.01800
C518        C  0.61526233  0.87660659  0.51226643     0.04700
C519        C  0.61696231  0.84422560  0.52084027    -0.11400
C520        C  0.65017001  0.84842772  0.53354185     0.24000
C521        C  0.68211372  0.88499539  0.53709679    -0.12000
C522        C  0.68074661  0.91745574  0.52821581     0.05400
C523        C  0.65097532  0.81418751  0.54355126     0.27800
C524        C  0.63742017  0.80009991  0.56991292    -0.12700
C525        C  0.63566151  0.76617154  0.57886450     0.05900
C526        C  0.64715345  0.74594498  0.56129840    -0.08600
C527        C  0.66119292  0.76043156  0.53496568     0.06700
C528        C  0.66335522  0.79464981  0.52623627    -0.13000
Br529      Br  0.72762448  0.89035174  0.55427162    -0.05100
Br530      Br  0.56829268  0.87003045  0.49675952     0.00600
Br531      Br  0.61849390  0.74826448  0.61553068     0.01000
Br532      Br  0.68227728  0.81447382  0.99025117    -0.03400
Br533      Br  0.72581922  0.96712645  0.53147683     0.01100
Br534      Br  0.57360291  0.79378988  0.51562977    -0.02700
Br535      Br  0.62063945  0.82718426  0.59353080    -0.03500
Br536      Br  0.67471039  0.73216643  0.50984329     0.00400
C537        C  0.75523386  0.10345647  0.97208143     0.01800
C538        C  0.78221579  0.12513116  0.99235372     0.04700
C539        C  0.81724473  0.15719023  0.98497959    -0.11400
C540        C  0.82525038  0.16811277  0.95742128     0.24000
C541        C  0.79929392  0.14559747  0.93704661    -0.12000
C542        C  0.76432260  0.11331536  0.94428144     0.05400
C543        C  0.85852476  0.20570619  0.95031068     0.27800
C544        C  0.85466659  0.23845931  0.95182373    -0.12700
C545        C  0.88614495  0.27458353  0.94620636     0.05900
C546        C  0.92161302  0.27812246  0.93861481    -0.08600
C547        C  0.92540031  0.24521995  0.93684575     0.06700
C548        C  0.89377902  0.20901807  0.94257822    -0.13000
Br549      Br  0.81107726  0.16039442  0.89928137    -0.05100
Br550      Br  0.77150775  0.11122199  0.53034835     0.00600
Br551      Br  0.88101319  0.31936194  0.95068181     0.01000
Br552      Br  0.89830914  0.16380700  0.93948659    -0.03400
Br553      Br  0.72769321  0.08520098  0.91601312     0.01100
Br554      Br  0.85401799  0.18719167  0.51261852    -0.02700
Br555      Br  0.80590695  0.23360629  0.96158570    -0.03500
Br556      Br  0.97337197  0.24939582  0.92567008     0.00400
C557        C  0.46673029  0.45431239  0.90330761     0.01800
C558        C  0.45895138  0.44122953  0.93050313     0.04700
C559        C  0.48195691  0.46483092  0.95172900    -0.11400
C560        C  0.51302939  0.50126750  0.94581673     0.24000
C561        C  0.52161400  0.51387504  0.91863028    -0.12000
C562        C  0.49855643  0.49045399  0.89738078     0.05400
C563        C  0.53624410  0.52647164  0.96835199     0.27800
C564        C  0.52627529  0.55222658  0.97996632    -0.12700
C565        C  0.54737379  0.57519917  0.50202579     0.05900
C566        C  0.57754577  0.57133198  0.51330019    -0.08600
C567        C  0.58751290  0.54550117  0.00157408     0.06700
C568        C  0.56732425  0.52368179  0.97878693    -0.13000
Br569      Br  0.56487792  0.56341091  0.91065350    -0.05100
Br570      Br  0.41578592  0.39186453  0.93901846     0.00600
Br571      Br  0.53570272  0.61302140  0.51597804     0.01000
Br572      Br  0.58153016  0.48926169  0.96202044    -0.03400
Br573      Br  0.51173100  0.50736655  0.86004543     0.01100
Br574      Br  0.47049406  0.44790729  0.98911567    -0.02700
Br575      Br  0.48300703  0.55518926  0.96598239    -0.03500
Br576      Br  0.62663383  0.53756820  0.51785830     0.00400
C577        C  0.45663111  0.46377601  0.76809661     0.01800
C578        C  0.44895794  0.49301928  0.76033422     0.04700
C579        C  0.46945670  0.51771006  0.73872873    -0.11400
C580        C  0.49785088  0.51350509  0.72498334     0.24000
C581        C  0.50599010  0.48476468  0.73292745    -0.12000
C582        C  0.48551838  0.45996811  0.75448499     0.05400
C583        C  0.51903980  0.53894384  0.70189802     0.27800
C584        C  0.50389378  0.52958838  0.67538625    -0.12700
C585        C  0.52601072  0.55095754  0.65301048     0.05900
C586        C  0.56294425  0.58237511  0.65719093    -0.08600
C587        C  0.57667805  0.59365628  0.68394950     0.06700
C588        C  0.55503132  0.57149683  0.70626228    -0.13000
Br589      Br  0.54504435  0.47923680  0.71392902    -0.05100
Br590      Br  0.41209906  0.50105024  0.78025995     0.00600
Br591      Br  0.50520707  0.53783634  0.61665479     0.01000
Br592      Br  0.57498312  0.58484232  0.74280327    -0.03400
Br593      Br  0.49635171  0.42001336  0.76444586     0.01100
Br594      Br  0.45886901  0.55746165  0.72784244    -0.02700
Br595      Br  0.45293476  0.48725465  0.66984696    -0.03500
Br596      Br  0.62561623  0.63846068  0.69018382     0.00400
C597        C  0.28468887  0.37988640  0.86089540     0.01800
C598        C  0.24921239  0.34789150  0.85417160     0.04700
C599        C  0.21491355  0.34652957  0.86203626    -0.11400
C600        C  0.21607479  0.37726722  0.87641799     0.24000
C601        C  0.25152497  0.40918416  0.88322356    -0.12000
C602        C  0.28579019  0.41042329  0.87558388     0.05400
C603        C  0.18008693  0.37672166  0.88368213     0.27800
C604        C  0.16718007  0.39683072  0.86745102    -0.12700
C605        C  0.13424492  0.39825811  0.87506807     0.05900
C606        C  0.11370614  0.37893976  0.89874298    -0.08600
C607        C  0.12600549  0.35783451  0.91450719     0.06700
C608        C  0.15932202  0.35694869  0.90706960    -0.13000
Br609      Br  0.25300222  0.45143280  0.90271245    -0.05100
Br610      Br  0.24751637  0.30709496  0.83268276     0.00600
Br611      Br  0.11892250  0.42873849  0.85382174     0.01000
Br612      Br  0.17672471  0.32879476  0.92890744    -0.03400
Br613      Br  0.33427354  0.45354722  0.88599496     0.01100
Br614      Br  0.16621130  0.30307394  0.85260853    -0.02700
Br615      Br  0.19505927  0.42277665  0.83488930    -0.03500
Br616      Br  0.09636635  0.32873113  0.94559181     0.00400
C617        C  0.37913666  0.28139013  0.80883224     0.01800
C618        C  0.36550420  0.24989954  0.82672341     0.04700
C619        C  0.36285008  0.21555995  0.81780944    -0.11400
C620        C  0.37394578  0.21265221  0.79107915     0.24000
C621        C  0.38628651  0.24355486  0.77290801    -0.12000
C622        C  0.38920026  0.27798783  0.78179122     0.05400
C623        C  0.37581661  0.17838565  0.78272321     0.27800
C624        C  0.41030330  0.17784894  0.78608345    -0.12700
C625        C  0.41276943  0.14582234  0.77791144     0.05900
C626        C  0.38098952  0.11452736  0.76579226    -0.08600
C627        C  0.34650099  0.11510765  0.76228143     0.06700
C628        C  0.34382720  0.14692929  0.77096421    -0.13000
Br629      Br  0.39994901  0.23868223  0.73596752    -0.05100
Br630      Br  0.34958192  0.25333986  0.86326387     0.00600
Br631      Br  0.45925344  0.14418737  0.78444075     0.01000
Br632      Br  0.29668731  0.14787068  0.76651704    -0.03400
Br633      Br  0.40985366  0.32121250  0.75737515     0.01100
Br634      Br  0.34428535  0.17241208  0.84215220    -0.02700
Br635      Br  0.45431538  0.22132681  0.80169797    -0.03500
Br636      Br  0.30370191  0.07335594  0.74422870     0.00400
loop_ 
_geom_bond_atom_site_label_1 
_geom_bond_atom_site_label_2 
_geom_bond_distance 
_geom_bond_site_symmetry_2 
_ccdc_geom_bond_type 
O1            C4   1.265       .  A
O1           Cd6   2.452       .  S
C2           O11   1.265       .  A
C2            O7   1.263       .  A
C2          C279   1.472       .  S
O3            C9   1.266       .  A
O3           Cd6   2.463       .  S
C4           O12   1.264       .  A
C4          C259   1.476       .  S
C5           O10   1.267       .  A
C5            O8   1.263       .  A
C5          C239   1.475       .  S
Cd6          O13   2.455       .  S
Cd6          O12   2.449       .  S
Cd6          O11   2.476       .  S
Cd6           O7   2.446       .  S
Cd6          O10   2.478       .  S
Cd6           O8   2.432       .  S
C9           O13   1.264       .  A
C9          C299   1.477       .  S
O14         C335   1.265       .  A
O14        Cd337   2.462       .  S
C15          O24   1.265   1_545  A
C15          O20   1.265       .  A
C15         C188   1.476       .  S
O16          C22   1.265   1_565  A
O16         Cd19   2.463   1_565  S
C17          O25   1.263       .  A
C17         O332   1.265       .  A
C17         C219   1.481       .  S
C18          O21   1.266       .  A
C18         O341   1.265   1_554  A
C18         C199   1.482       .  S
Cd19         O26   2.460       .  S
Cd19         O25   2.469       .  S
Cd19         O23   2.468   1_545  S
Cd19        O332   2.462       .  S
Cd19        O342   2.458   1_545  S
Cd19        O338   2.474       .  S
Cd19        O339   2.467   1_545  S
O20        Cd337   2.474   1_554  S
O21        Cd337   2.467   1_564  S
C22          O26   1.263       .  A
C22         C168   1.478       .  S
O23         C336   1.265       .  A
O24        Cd337   2.458   1_564  S
O27          C30   1.266       .  A
O27         Cd32   2.456       .  S
C28          O37   1.265       .  A
C28          O33   1.264   1_455  A
C28         C148   1.477       .  S
O29          C35   1.266   1_655  A
O29         Cd32   2.465   1_655  S
C30          O38   1.264       .  A
C30         C288   1.473       .  S
C31          O36   1.265       .  A
C31          O34   1.265       .  A
C31         C228   1.477       .  S
Cd32         O39   2.440       .  S
Cd32         O38   2.439       .  S
Cd32         O37   2.465       .  S
Cd32         O33   2.460   1_455  S
Cd32         O36   2.452   1_455  S
Cd32         O34   2.469   1_455  S
C35          O39   1.263       .  A
C35         C128   1.474       .  S
O40          C43   1.266       .  A
O40         Cd45   2.467   1_565  S
C41          O50   1.261       .  A
C41          O46   1.264       .  A
C41         C159   1.484       .  S
O42          C48   1.266       .  A
O42         Cd45   2.468       .  S
C43          O51   1.265       .  A
C43         C108   1.479       .  S
C44          O49   1.264       .  A
C44          O47   1.264       .  A
C44         C308   1.472       .  S
Cd45         O52   2.451   1_545  S
Cd45         O51   2.476   1_545  S
Cd45         O50   2.476       .  S
Cd45         O46   2.490       .  S
Cd45         O49   2.454       .  S
Cd45         O47   2.469       .  S
C48          O52   1.266   1_545  A
C48         C179   1.476       .  S
O53          C56   1.265       .  A
O53         Cd58   2.480       .  S
C54          O63   1.265       .  A
C54          O59   1.265       .  A
C54          C88   1.478       .  S
O55          C61   1.264       .  A
O55         Cd58   2.453       .  S
C56          O64   1.263       .  A
C56         C248   1.477       .  S
C57          O62   1.265       .  A
C57          O60   1.264       .  A
C57         C268   1.474       .  S
Cd58         O65   2.464       .  S
Cd58         O64   2.445       .  S
Cd58         O63   2.460       .  S
Cd58         O59   2.465       .  S
Cd58         O62   2.477       .  S
Cd58         O60   2.441       .  S
C61          O65   1.265       .  A
C61         C208   1.479       .  S
O66          C69   1.265       .  A
O66         Cd71   2.461   1_655  S
C67          O76   1.264       .  A
C67          O72   1.263   1_455  A
C67         C119   1.480       .  S
O68          C74   1.266       .  A
O68         Cd71   2.474       .  S
C69          O77   1.266       .  A
C69          C79   1.482       .  S
C70          O75   1.265       .  A
C70          O73   1.262       .  A
C70          C99   1.482       .  S
Cd71         O78   2.469   1_455  S
Cd71         O77   2.463   1_455  S
Cd71         O76   2.471       .  S
Cd71         O72   2.478   1_455  S
Cd71         O75   2.485       .  S
Cd71         O73   2.462       .  S
C74          O78   1.265   1_455  A
C74         C139   1.480       .  S
C79          C80   1.414       .  A
C79          C84   1.415       .  A
C80          C81   1.408       .  A
C80         Br92   1.931       .  S
C81          C82   1.408       .  A
C81         Br96   1.930       .  S
C82          C85   1.483       .  S
C82          C83   1.407       .  A
C83          C84   1.407       .  A
C83         Br91   1.931       .  S
C84         Br95   1.932       .  S
C85          C86   1.407       .  A
C85          C90   1.409       .  A
C86          C87   1.406       .  A
C86         Br97   1.930       .  S
C87          C88   1.412       .  A
C87         Br93   1.927       .  S
C88          C89   1.412       .  A
C89          C90   1.407       .  A
C89         Br98   1.931       .  S
C90         Br94   1.930       .  S
C99         C100   1.413       .  A
C99         C104   1.415       .  A
C100        C101   1.410       .  A
C100       Br112   1.931       .  S
C101        C102   1.409       .  A
C101       Br116   1.929       .  S
C102        C105   1.485       .  S
C102        C103   1.407       .  A
C103        C104   1.406       .  A
C103       Br111   1.931       .  S
C104       Br115   1.931       .  S
C105        C106   1.409       .  A
C105        C110   1.409       .  A
C106        C107   1.406       .  A
C106       Br117   1.930       .  S
C107        C108   1.410       .  A
C107       Br113   1.930       .  S
C108        C109   1.413       .  A
C109        C110   1.410       .  A
C109       Br118   1.928       .  S
C110       Br114   1.930       .  S
C119        C120   1.413   1_455  A
C119        C124   1.413       .  A
C120        C121   1.407       .  A
C120       Br132   1.930       .  S
C121        C122   1.408   1_655  A
C121       Br136   1.931       .  S
C122        C125   1.482       .  S
C122        C123   1.407       .  A
C123        C124   1.407       .  A
C123       Br131   1.930       .  S
C124       Br135   1.930       .  S
C125        C126   1.408       .  A
C125        C130   1.408       .  A
C126        C127   1.406       .  A
C126       Br137   1.929       .  S
C127        C128   1.412       .  A
C127       Br133   1.932       .  S
C128        C129   1.411       .  A
C129        C130   1.406       .  A
C129       Br138   1.931       .  S
C130       Br134   1.929       .  S
C139        C140   1.413       .  A
C139        C144   1.413   1_455  A
C140        C141   1.408       .  A
C140       Br152   1.930       .  S
C141        C142   1.408       .  A
C141       Br156   1.931       .  S
C142        C145   1.484       .  S
C142        C143   1.408   1_455  A
C143        C144   1.408       .  A
C143       Br151   1.930       .  S
C144       Br155   1.930       .  S
C145        C146   1.408       .  A
C145        C150   1.409   1_455  A
C146        C147   1.408   1_554  A
C146       Br157   1.929       .  S
C147        C466   1.413       .  A
C147       Br153   1.931       .  S
C148        C149   1.412   1_455  A
C148        C465   1.413       .  A
C149        C468   1.407       .  A
C149       Br158   1.931       .  S
C150        C467   1.407       .  A
C150       Br472   1.930       .  S
Br154       C468   1.930       .  S
C159        C160   1.416       .  A
C159        C164   1.413   1_545  A
C160        C161   1.408       .  A
C160       Br172   1.931       .  S
C161        C162   1.407       .  A
C161       Br176   1.931       .  S
C162        C165   1.485       .  S
C162        C163   1.408   1_545  A
C163        C164   1.408       .  A
C163       Br171   1.929       .  S
C164       Br175   1.931       .  S
C165        C166   1.408       .  A
C165        C170   1.409       .  A
C166        C167   1.408       .  A
C166       Br177   1.928   1_545  S
C167        C168   1.412       .  A
C167       Br173   1.932   1_545  S
C168        C169   1.413       .  A
C169        C170   1.407       .  A
C169       Br178   1.932       .  S
C170       Br174   1.930       .  S
C179        C180   1.412       .  A
C179        C184   1.410       .  A
C180        C181   1.408       .  A
C180       Br192   1.931       .  S
C181        C182   1.409       .  A
C181       Br196   1.930       .  S
C182        C185   1.485       .  S
C182        C183   1.410       .  A
C183        C184   1.407       .  A
C183       Br191   1.929   1_545  S
C184       Br195   1.931   1_545  S
C185        C186   1.410       .  A
C185        C190   1.410   1_545  A
C186        C187   1.409       .  A
C186       Br197   1.929       .  S
C187        C188   1.411       .  A
C187       Br193   1.930       .  S
C188        C189   1.410   1_545  A
C189        C190   1.407       .  A
C189       Br198   1.931       .  S
C190       Br194   1.930       .  S
C199        C200   1.414       .  A
C199        C204   1.414       .  A
C200        C201   1.407       .  A
C200       Br212   1.931   1_554  S
C201        C202   1.407       .  A
C201       Br216   1.932       .  S
C202        C205   1.483       .  S
C202        C203   1.407       .  A
C203        C204   1.408       .  A
C203       Br211   1.930       .  S
C204       Br215   1.931       .  S
C205        C206   1.408       .  A
C205        C210   1.408       .  A
C206        C207   1.406       .  A
C206       Br217   1.930       .  S
C207        C208   1.413       .  A
C207       Br213   1.932       .  S
C208        C209   1.413       .  A
C209        C210   1.407       .  A
C209       Br218   1.932       .  S
C210       Br532   1.930   1_554  S
Br214       C528   1.930       .  S
C219        C220   1.413       .  A
C219        C224   1.416       .  A
C220        C221   1.407       .  A
C220       Br550   1.931       .  S
C221        C222   1.408       .  A
C221       Br554   1.930       .  S
C222        C225   1.483       .  S
C222        C223   1.407       .  A
C223        C224   1.408       .  A
C223       Br231   1.931       .  S
C224       Br235   1.932       .  S
C225        C226   1.408       .  A
C225        C230   1.408       .  A
C226        C227   1.404       .  A
C226       Br237   1.932       .  S
C227        C228   1.411       .  A
C227       Br233   1.932       .  S
C228        C229   1.413       .  A
C229        C230   1.410       .  A
C229       Br238   1.931       .  S
C230       Br234   1.929       .  S
Br232       C538   1.931   1_554  S
Br236       C539   1.930   1_554  S
C239        C240   1.411       .  A
C239        C244   1.413       .  A
C240        C241   1.407       .  A
C240       Br252   1.930       .  S
C241        C242   1.409       .  A
C241       Br256   1.930       .  S
C242        C245   1.481       .  S
C242        C243   1.407       .  A
C243        C244   1.406       .  A
C243       Br251   1.930       .  S
C244       Br255   1.933       .  S
C245        C246   1.408       .  A
C245        C250   1.407       .  A
C246        C565   1.406       .  A
C246       Br257   1.931       .  S
C247        C248   1.412       .  A
C247        C564   1.406   1_554  A
C247       Br253   1.932       .  S
C248        C567   1.412       .  A
C249        C250   1.407       .  A
C249        C566   1.412       .  A
C249       Br576   1.930       .  S
C250       Br254   1.930       .  S
Br258       C567   1.930       .  S
C259        C260   1.413       .  A
C259        C264   1.412       .  A
C260        C261   1.406       .  A
C260       Br272   1.932       .  S
C261        C262   1.407       .  A
C261       Br276   1.929       .  S
C262        C265   1.480       .  S
C262        C263   1.408       .  A
C263        C264   1.406       .  A
C263       Br271   1.931       .  S
C264       Br275   1.931       .  S
C265        C266   1.407       .  A
C265        C270   1.408       .  A
C266        C267   1.405       .  A
C266       Br277   1.930       .  S
C267        C268   1.411       .  A
C267       Br273   1.931       .  S
C268        C269   1.411       .  A
C269        C270   1.407       .  A
C269       Br278   1.926       .  S
C270       Br274   1.930       .  S
C279        C280   1.410       .  A
C279        C284   1.410       .  A
C280        C281   1.407       .  A
C280       Br292   1.929       .  S
C281        C282   1.409       .  A
C281       Br296   1.930       .  S
C282        C285   1.480       .  S
C282        C283   1.409       .  A
C283        C284   1.405       .  A
C283       Br291   1.931       .  S
C284       Br295   1.932       .  S
C285        C286   1.408       .  A
C285        C290   1.409       .  A
C286        C287   1.405       .  A
C286       Br297   1.932       .  S
C287        C288   1.413       .  A
C287       Br293   1.933       .  S
C288        C289   1.410       .  A
C289        C290   1.406       .  A
C289       Br298   1.931       .  S
C290       Br294   1.929       .  S
C299        C300   1.412       .  A
C299        C304   1.413       .  A
C300        C301   1.407       .  A
C300       Br312   1.930       .  S
C301        C302   1.408       .  A
C301       Br316   1.929       .  S
C302        C305   1.481       .  S
C302        C303   1.407       .  A
C303        C304   1.406       .  A
C303       Br311   1.931       .  S
C304       Br315   1.930       .  S
C305        C306   1.409       .  A
C305        C310   1.409       .  A
C306        C307   1.404       .  A
C306       Br317   1.930       .  S
C307        C308   1.409       .  A
C307       Br313   1.931       .  S
C308        C309   1.410       .  A
C309        C310   1.408       .  A
C309       Br318   1.928       .  S
C310       Br314   1.929       .  S
O319        C322   1.265       .  A
O319       Cd324   2.452       .  S
C320        O329   1.265       .  A
C320        O325   1.263       .  A
C320        C597   1.472       .  S
O321        C327   1.266       .  A
O321       Cd324   2.463       .  S
C322        O330   1.264       .  A
C322        C577   1.476       .  S
C323        O328   1.267       .  A
C323        O326   1.263       .  A
C323        C557   1.475       .  S
Cd324       O331   2.455       .  S
Cd324       O330   2.449       .  S
Cd324       O329   2.476       .  S
Cd324       O325   2.446       .  S
Cd324       O328   2.478       .  S
Cd324       O326   2.432       .  S
C327        O331   1.264       .  A
C327        C617   1.477       .  S
C333        O342   1.264   1_545  A
C333        O338   1.265       .  A
C333        C506   1.476       .  S
O334        C340   1.265   1_565  A
O334       Cd337   2.463   1_565  S
C335        O343   1.263       .  A
C335        C537   1.481       .  S
C336        O339   1.266       .  A
C336        C517   1.482       .  S
Cd337       O344   2.460       .  S
Cd337       O343   2.469       .  S
Cd337       O341   2.468   1_545  S
C340        O344   1.263       .  A
C340        C486   1.478       .  S
O345        C348   1.266       .  A
O345       Cd350   2.456       .  S
C346        O355   1.265       .  A
C346        O351   1.264   1_455  A
C346        C466   1.477       .  S
O347        C353   1.266   1_655  A
O347       Cd350   2.465   1_655  S
C348        O356   1.264       .  A
C348        C606   1.473       .  S
C349        O354   1.265       .  A
C349        O352   1.265       .  A
C349        C546   1.477       .  S
Cd350       O357   2.440       .  S
Cd350       O356   2.439       .  S
Cd350       O355   2.465       .  S
Cd350       O351   2.460   1_455  S
Cd350       O354   2.452   1_455  S
Cd350       O352   2.469   1_455  S
C353        O357   1.263       .  A
C353        C446   1.474       .  S
O358        C361   1.266       .  A
O358       Cd363   2.467   1_565  S
C359        O368   1.261       .  A
C359        O364   1.264       .  A
C359        C477   1.484       .  S
O360        C366   1.266       .  A
O360       Cd363   2.468       .  S
C361        O369   1.265       .  A
C361        C426   1.479       .  S
C362        O367   1.264       .  A
C362        O365   1.264       .  A
C362        C626   1.472       .  S
Cd363       O370   2.451   1_545  S
Cd363       O369   2.476   1_545  S
Cd363       O368   2.476       .  S
Cd363       O364   2.490       .  S
Cd363       O367   2.454       .  S
Cd363       O365   2.469       .  S
C366        O370   1.266   1_545  A
C366        C497   1.476       .  S
O371        C374   1.265       .  A
O371       Cd376   2.480       .  S
C372        O381   1.265       .  A
C372        O377   1.265       .  A
C372        C406   1.478       .  S
O373        C379   1.264       .  A
O373       Cd376   2.453       .  S
C374        O382   1.263       .  A
C374        C566   1.477       .  S
C375        O380   1.265       .  A
C375        O378   1.264       .  A
C375        C586   1.474       .  S
Cd376       O383   2.464       .  S
Cd376       O382   2.445       .  S
Cd376       O381   2.460       .  S
Cd376       O377   2.465       .  S
Cd376       O380   2.477       .  S
Cd376       O378   2.441       .  S
C379        O383   1.265       .  A
C379        C526   1.479       .  S
O384        C387   1.265       .  A
O384       Cd389   2.461   1_655  S
C385        O394   1.264       .  A
C385        O390   1.263   1_455  A
C385        C437   1.480       .  S
O386        C392   1.266       .  A
O386       Cd389   2.474       .  S
C387        O395   1.266       .  A
C387        C397   1.482       .  S
C388        O393   1.265       .  A
C388        O391   1.262       .  A
C388        C417   1.482       .  S
Cd389       O396   2.469   1_455  S
Cd389       O395   2.464   1_455  S
Cd389       O394   2.471       .  S
Cd389       O390   2.478   1_455  S
Cd389       O393   2.485       .  S
Cd389       O391   2.462       .  S
C392        O396   1.265   1_455  A
C392        C457   1.480       .  S
C397        C398   1.414       .  A
C397        C402   1.415       .  A
C398        C399   1.408       .  A
C398       Br410   1.931       .  S
C399        C400   1.408       .  A
C399       Br414   1.930       .  S
C400        C403   1.483       .  S
C400        C401   1.407       .  A
C401        C402   1.407       .  A
C401       Br409   1.931       .  S
C402       Br413   1.932       .  S
C403        C404   1.407       .  A
C403        C408   1.409       .  A
C404        C405   1.406       .  A
C404       Br415   1.930       .  S
C405        C406   1.412       .  A
C405       Br411   1.927       .  S
C406        C407   1.412       .  A
C407        C408   1.407       .  A
C407       Br416   1.931       .  S
C408       Br412   1.930       .  S
C417        C418   1.413       .  A
C417        C422   1.415       .  A
C418        C419   1.410       .  A
C418       Br430   1.931       .  S
C419        C420   1.409       .  A
C419       Br434   1.929       .  S
C420        C423   1.485       .  S
C420        C421   1.407       .  A
C421        C422   1.406       .  A
C421       Br429   1.931       .  S
C422       Br433   1.931       .  S
C423        C424   1.409       .  A
C423        C428   1.409       .  A
C424        C425   1.406       .  A
C424       Br435   1.930       .  S
C425        C426   1.410       .  A
C425       Br431   1.930       .  S
C426        C427   1.413       .  A
C427        C428   1.410       .  A
C427       Br436   1.928       .  S
C428       Br432   1.930       .  S
C437        C438   1.413   1_455  A
C437        C442   1.413       .  A
C438        C439   1.407       .  A
C438       Br450   1.930       .  S
C439        C440   1.408   1_655  A
C439       Br454   1.931       .  S
C440        C443   1.482       .  S
C440        C441   1.407       .  A
C441        C442   1.407       .  A
C441       Br449   1.930       .  S
C442       Br453   1.930       .  S
C443        C444   1.408       .  A
C443        C448   1.408       .  A
C444        C445   1.406       .  A
C444       Br455   1.929       .  S
C445        C446   1.412       .  A
C445       Br451   1.932       .  S
C446        C447   1.411       .  A
C447        C448   1.406       .  A
C447       Br456   1.931       .  S
C448       Br452   1.929       .  S
C457        C458   1.413       .  A
C457        C462   1.413   1_455  A
C458        C459   1.408       .  A
C458       Br470   1.930       .  S
C459        C460   1.408       .  A
C459       Br474   1.931       .  S
C460        C463   1.484       .  S
C460        C461   1.408   1_455  A
C461        C462   1.408       .  A
C461       Br469   1.930       .  S
C462       Br473   1.930       .  S
C463        C464   1.408       .  A
C463        C468   1.409   1_455  A
C464        C465   1.408       .  A
C464       Br475   1.929       .  S
C465       Br471   1.931       .  S
C466        C467   1.412   1_456  A
C467       Br476   1.931       .  S
C477        C478   1.416       .  A
C477        C482   1.413   1_545  A
C478        C479   1.408       .  A
C478       Br490   1.931       .  S
C479        C480   1.407       .  A
C479       Br494   1.931       .  S
C480        C483   1.485       .  S
C480        C481   1.408   1_545  A
C481        C482   1.408       .  A
C481       Br489   1.929       .  S
C482       Br493   1.931       .  S
C483        C484   1.408       .  A
C483        C488   1.409       .  A
C484        C485   1.408       .  A
C484       Br495   1.928   1_545  S
C485        C486   1.412       .  A
C485       Br491   1.932   1_545  S
C486        C487   1.413       .  A
C487        C488   1.407       .  A
C487       Br496   1.932       .  S
C488       Br492   1.930       .  S
C497        C498   1.412       .  A
C497        C502   1.410       .  A
C498        C499   1.408       .  A
C498       Br510   1.931       .  S
C499        C500   1.409       .  A
C499       Br514   1.930       .  S
C500        C503   1.485       .  S
C500        C501   1.410       .  A
C501        C502   1.407       .  A
C501       Br509   1.929   1_545  S
C502       Br513   1.931   1_545  S
C503        C504   1.410       .  A
C503        C508   1.410   1_545  A
C504        C505   1.409       .  A
C504       Br515   1.929       .  S
C505        C506   1.411       .  A
C505       Br511   1.930       .  S
C506        C507   1.410   1_545  A
C507        C508   1.407       .  A
C507       Br516   1.931       .  S
C508       Br512   1.930       .  S
C517        C518   1.414       .  A
C517        C522   1.414       .  A
C518        C519   1.407       .  A
C518       Br530   1.931       .  S
C519        C520   1.407       .  A
C519       Br534   1.932       .  S
C520        C523   1.483       .  S
C520        C521   1.407       .  A
C521        C522   1.408       .  A
C521       Br529   1.930       .  S
C522       Br533   1.931       .  S
C523        C524   1.408       .  A
C523        C528   1.408       .  A
C524        C525   1.406       .  A
C524       Br535   1.930       .  S
C525        C526   1.413       .  A
C525       Br531   1.932       .  S
C526        C527   1.413       .  A
C527        C528   1.407       .  A
C527       Br536   1.932       .  S
C537        C538   1.413       .  A
C537        C542   1.416       .  A
C538        C539   1.407       .  A
C539        C540   1.408       .  A
C540        C543   1.483       .  S
C540        C541   1.407       .  A
C541        C542   1.408       .  A
C541       Br549   1.931       .  S
C542       Br553   1.932       .  S
C543        C544   1.408       .  A
C543        C548   1.408       .  A
C544        C545   1.404       .  A
C544       Br555   1.932       .  S
C545        C546   1.411       .  A
C545       Br551   1.932       .  S
C546        C547   1.413       .  A
C547        C548   1.410       .  A
C547       Br556   1.931       .  S
C548       Br552   1.929       .  S
C557        C558   1.411       .  A
C557        C562   1.413       .  A
C558        C559   1.407       .  A
C558       Br570   1.930       .  S
C559        C560   1.409       .  A
C559       Br574   1.930       .  S
C560        C563   1.481       .  S
C560        C561   1.407       .  A
C561        C562   1.406       .  A
C561       Br569   1.930       .  S
C562       Br573   1.933       .  S
C563        C564   1.408       .  A
C563        C568   1.407       .  A
C564       Br575   1.931       .  S
C565        C566   1.412       .  A
C565       Br571   1.932       .  S
C567        C568   1.407   1_554  A
C568       Br572   1.930       .  S
C577        C578   1.413       .  A
C577        C582   1.412       .  A
C578        C579   1.406       .  A
C578       Br590   1.932       .  S
C579        C580   1.407       .  A
C579       Br594   1.929       .  S
C580        C583   1.480       .  S
C580        C581   1.408       .  A
C581        C582   1.406       .  A
C581       Br589   1.931       .  S
C582       Br593   1.931       .  S
C583        C584   1.407       .  A
C583        C588   1.408       .  A
C584        C585   1.405       .  A
C584       Br595   1.930       .  S
C585        C586   1.411       .  A
C585       Br591   1.931       .  S
C586        C587   1.411       .  A
C587        C588   1.407       .  A
C587       Br596   1.926       .  S
C588       Br592   1.930       .  S
C597        C598   1.410       .  A
C597        C602   1.410       .  A
C598        C599   1.407       .  A
C598       Br610   1.929       .  S
C599        C600   1.409       .  A
C599       Br614   1.930       .  S
C600        C603   1.480       .  S
C600        C601   1.409       .  A
C601        C602   1.405       .  A
C601       Br609   1.931       .  S
C602       Br613   1.932       .  S
C603        C604   1.408       .  A
C603        C608   1.409       .  A
C604        C605   1.405       .  A
C604       Br615   1.932       .  S
C605        C606   1.413       .  A
C605       Br611   1.933       .  S
C606        C607   1.410       .  A
C607        C608   1.406       .  A
C607       Br616   1.931       .  S
C608       Br612   1.929       .  S
C617        C618   1.412       .  A
C617        C622   1.413       .  A
C618        C619   1.407       .  A
C618       Br630   1.930       .  S
C619        C620   1.408       .  A
C619       Br634   1.929       .  S
C620        C623   1.481       .  S
C620        C621   1.407       .  A
C621        C622   1.406       .  A
C621       Br629   1.931       .  S
C622       Br633   1.930       .  S
C623        C624   1.409       .  A
C623        C628   1.409       .  A
C624        C625   1.404       .  A
C624       Br635   1.930       .  S
C625        C626   1.409       .  A
C625       Br631   1.931       .  S
C626        C627   1.410       .  A
C627        C628   1.408       .  A
C627       Br636   1.928       .  S
C628       Br632   1.929       .  S
