geometry optimzed in LAMMPS
_audit_creation_date              2020-12-01 
_audit_creation_method            'lammps2cif' 
_symmetry_space_group_name_H-M    'P1' 
_symmetry_Int_Tables_number       1 
_symmetry_cell_setting            triclinic 
loop_ 
_symmetry_equiv_pos_as_xyz 
  x,y,z 
_cell_length_a                    55.42345314 
_cell_length_b                    55.327787942120786 
_cell_length_c                    55.44327055954367 
_cell_angle_alpha                 89.87350174360166 
_cell_angle_beta                  90.00152109047649 
_cell_angle_gamma                 90.13931807025243 
loop_ 
_atom_site_label 
_atom_site_type_symbol 
_atom_site_fract_x 
_atom_site_fract_y 
_atom_site_fract_z 
_atom_site_charge 
O1          O  0.63269874  0.24856785  0.89148303    -0.74200
O2          O  0.56849726  0.27282725  0.88321090    -0.74200
O3          O  0.59927433  0.24687681  0.85576481    -0.74300
O4          O  0.60167141  0.27470018  0.91901643    -0.74300
O5          O  0.61660609  0.30861699  0.90344036    -0.74200
O6          O  0.61439479  0.28106922  0.84051383    -0.74200
O7          O  0.58356919  0.30699648  0.86791311    -0.74200
O8          O  0.64736012  0.28276925  0.87606059    -0.74300
Ni9        Ni  0.59998926  0.25949878  0.88797160     1.25400
Ni10       Ni  0.61597674  0.29605628  0.87145662     1.25400
C11         C  0.65066068  0.26163676  0.88489613     0.88000
C12         C  0.56554290  0.29387873  0.87405489     0.87900
C13         C  0.60675207  0.25940912  0.83779125     0.88000
C14         C  0.60948473  0.29637979  0.92167700     0.88100
O15         O  0.26210498  0.63192745  0.90591681    -0.74200
O16         O  0.28894739  0.56925526  0.89661715    -0.74200
O17         O  0.29135396  0.60288399  0.93205728    -0.74300
O18         O  0.26002186  0.59845821  0.87051108    -0.74300
O19         O  0.29229648  0.61510954  0.85319976    -0.74200
O20         O  0.32357580  0.61920322  0.91437061    -0.74200
O21         O  0.32113959  0.58556872  0.87888258    -0.74200
O22         O  0.29436376  0.64855737  0.88859434    -0.74300
Ni23       Ni  0.27448787  0.60002356  0.90194484     1.25400
Ni24       Ni  0.30901765  0.61768471  0.88317992     1.25400
C25         C  0.27370665  0.65062268  0.89879878     0.88000
C26         C  0.30921869  0.56695223  0.88580362     0.87900
C27         C  0.31264219  0.61194193  0.93337064     0.88000
C28         C  0.27101897  0.60625383  0.85167877     0.88100
O29         O  0.35417577  0.31604775  0.82341672    -0.74200
O30         O  0.34684031  0.37995649  0.84884747    -0.74200
O31         O  0.31823251  0.34925591  0.82380931    -0.74300
O32         O  0.38263965  0.34654513  0.84840879    -0.74300
O33         O  0.39642697  0.36199150  0.81394635    -0.74200
O34         O  0.33215238  0.36487152  0.78957034    -0.74200
O35         O  0.36089342  0.39527900  0.81447165    -0.74200
O36         O  0.36784244  0.33172557  0.78901858    -0.74300
Ni37       Ni  0.34995567  0.34744205  0.83739029     1.25400
Ni38       Ni  0.36479364  0.36404884  0.80055916     1.25400
C39         C  0.36264226  0.31335743  0.80207358     0.88000
C40         C  0.35262961  0.39821127  0.83582041     0.87900
C41         C  0.31448560  0.35742973  0.80253851     0.88000
C42         C  0.40022724  0.35330858  0.83502769     0.88100
O43         O  0.61923377  0.63178517  0.22257076    -0.74200
O44         O  0.62236855  0.56889385  0.19495352    -0.74200
O45         O  0.65323865  0.59704222  0.21999032    -0.74300
O46         O  0.58853736  0.60374292  0.19734939    -0.74300
O47         O  0.60230983  0.61939017  0.16304162    -0.74200
O48         O  0.66686746  0.61311975  0.18583785    -0.74200
O49         O  0.63649159  0.58470906  0.16068860    -0.74200
O50         O  0.63280700  0.64784714  0.18838261    -0.74300
Ni51       Ni  0.62035267  0.59978255  0.20993146     1.25400
Ni52       Ni  0.63508140  0.61683427  0.17324487     1.25400
C53         C  0.62542017  0.65029948  0.21010895     0.88000
C54         C  0.63026665  0.56641510  0.17343138     0.87900
C55         C  0.67083132  0.60403647  0.20666026     0.88000
C56         C  0.58469116  0.61292259  0.17647078     0.88100
O57         O  0.68037459  0.34895494  0.16679588    -0.74200
O58         O  0.64813749  0.34145804  0.10613260    -0.74200
O59         O  0.67721616  0.31355077  0.13374191    -0.74300
O60         O  0.65124854  0.37700072  0.13968432    -0.74300
O61         O  0.68330590  0.39213063  0.12044551    -0.74200
O62         O  0.70949762  0.32861634  0.11488052    -0.74200
O63         O  0.68046883  0.35642403  0.08741681    -0.74200
O64         O  0.71243465  0.36429443  0.14785506    -0.74300
Ni65       Ni  0.66303277  0.34472802  0.13720683     1.25400
Ni66       Ni  0.69753637  0.36092813  0.11692989     1.25400
C67         C  0.70175190  0.35783649  0.16729803     0.88000
C68         C  0.65916649  0.34744582  0.08670518     0.87900
C69         C  0.69786628  0.31071664  0.12386594     0.88000
C70         C  0.66326948  0.39500718  0.13152965     0.88100
O71         O  0.33257528  0.67394995  0.14332013    -0.74200
O72         O  0.39598698  0.64772940  0.14930671    -0.74200
O73         O  0.36598539  0.67251894  0.17878920    -0.74300
O74         O  0.36241711  0.64921111  0.11391357    -0.74300
O75         O  0.37791795  0.68390743  0.10053914    -0.74200
O76         O  0.38184809  0.70711117  0.16536431    -0.74200
O77         O  0.41149308  0.68248614  0.13588869    -0.74200
O78         O  0.34823791  0.70864255  0.13002607    -0.74300
Ni79       Ni  0.36370859  0.65958583  0.14680886     1.25400
Ni80       Ni  0.38044177  0.69675915  0.13247057     1.25400
C81         C  0.32996748  0.69567362  0.13581277     0.88000
C82         C  0.41416826  0.66084911  0.14360339     0.87900
C83         C  0.37464483  0.69362963  0.18274639     0.88000
C84         C  0.36911856  0.66289875  0.09646915     0.88100
O85         O  0.60831764  0.20086587  0.65315887    -0.74200
O86         O  0.61329306  0.17376512  0.58999816    -0.74200
O87         O  0.57874978  0.17536676  0.62435703    -0.74300
O88         O  0.64291296  0.19942427  0.61867663    -0.74300
O89         O  0.65730355  0.16547312  0.63483497    -0.74200
O90         O  0.59266331  0.14099504  0.64000483    -0.74200
O91         O  0.62801587  0.13973349  0.60586646    -0.74200
O92         O  0.62218927  0.16656615  0.66898972    -0.74300
Ni93       Ni  0.61032221  0.18855036  0.62097344     1.25400
Ni94       Ni  0.62553174  0.15192189  0.63797607     1.25400
C95         C  0.61397055  0.18799951  0.67154811     0.88000
C96         C  0.62194703  0.15248671  0.58757858     0.87900
C97         C  0.57501112  0.15461426  0.63381466     0.88000
C98         C  0.66071440  0.18637393  0.62538630     0.88100
O99         O  0.69097394  0.10668953  0.34018288    -0.74200
O100        O  0.66052130  0.11593534  0.40133997    -0.74200
O101        O  0.68745592  0.14375699  0.37187872    -0.74300
O102        O  0.66384383  0.07888785  0.36965631    -0.74300
O103        O  0.69785654  0.06588246  0.38681844    -0.74200
O104        O  0.72027002  0.13127644  0.39126283    -0.74200
O105        O  0.69350046  0.10179642  0.41965368    -0.74200
O106        O  0.72487192  0.09532889  0.35873637    -0.74300
Ni107      Ni  0.67449155  0.11175075  0.37010493     1.25400
Ni108      Ni  0.71030028  0.09808845  0.38982028     1.25400
C109        C  0.71297701  0.09970139  0.33946149     0.88000
C110        C  0.67215265  0.11048659  0.42052286     0.87900
C111        C  0.70762822  0.14838226  0.38219992     0.88000
C112        C  0.67722955  0.06166883  0.37725976     0.88100
O113        O  0.34321612  0.09551922  0.73798012    -0.74200
O114        O  0.40632978  0.10253427  0.71075527    -0.74200
O115        O  0.37749543  0.13050306  0.73836748    -0.74300
O116        O  0.37213555  0.06776341  0.71034820    -0.74300
O117        O  0.35573523  0.08383765  0.67734935    -0.74200
O118        O  0.36170876  0.14675081  0.70508767    -0.74200
O119        O  0.39032071  0.11836327  0.67744466    -0.74200
O120        O  0.32720772  0.11236913  0.70505681    -0.74300
Ni121      Ni  0.37537448  0.09850456  0.72553702     1.25400
Ni122      Ni  0.35818871  0.11589596  0.69002494     1.25400
C123        C  0.32488751  0.10299041  0.72607063     0.88000
C124        C  0.40874380  0.11139534  0.68952104     0.87900
C125        C  0.37041739  0.14896049  0.72636489     0.88000
C126        C  0.36305175  0.06540974  0.68924319     0.88100
O127        O  0.27251243  0.86709998  0.66793671    -0.74200
O128        O  0.29532400  0.85845117  0.60347619    -0.74200
O129        O  0.26983699  0.83123262  0.63518448    -0.74300
O130        O  0.29796140  0.89418689  0.63619400    -0.74300
O131        O  0.33203897  0.87893562  0.65084855    -0.74200
O132        O  0.30409273  0.81561134  0.64912867    -0.74200
O133        O  0.32970159  0.84329973  0.61769727    -0.74200
O134        O  0.30654399  0.85128367  0.68228104    -0.74300
Ni135      Ni  0.28271422  0.86328543  0.63518492     1.25400
Ni136      Ni  0.31934243  0.84671850  0.65048014     1.25400
C137        C  0.28565714  0.86053772  0.68576133     0.88000
C138        C  0.31641485  0.84975081  0.59992948     0.87900
C139        C  0.28217807  0.81300964  0.64226317     0.88000
C140        C  0.31962184  0.89706432  0.64371251     0.88100
O141        O  0.65975965  0.84933100  0.31198369    -0.74200
O142        O  0.59859179  0.84116805  0.34259900    -0.74200
O143        O  0.62624215  0.81436121  0.31281900    -0.74300
O144        O  0.63247039  0.87648066  0.34178497    -0.74300
O145        O  0.61448501  0.89331215  0.31014638    -0.74200
O146        O  0.60820999  0.83092656  0.28093162    -0.74200
O147        O  0.58049475  0.85789351  0.31089397    -0.74200
O148        O  0.64188637  0.86602791  0.28008458    -0.74300
Ni149      Ni  0.62983940  0.84481003  0.32846052     1.25400
Ni150      Ni  0.61055304  0.86270945  0.29441629     1.25400
C151        C  0.66088238  0.85821191  0.29068914     0.88000
C152        C  0.57937729  0.84796393  0.33178612     0.87900
C153        C  0.61673251  0.81241356  0.29187209     0.88000
C154        C  0.62482028  0.89526321  0.33075594     0.88100
O155        O  0.38092110  0.75342478  0.36715560    -0.74200
O156        O  0.37533643  0.77912026  0.43092951    -0.74200
O157        O  0.34594522  0.75453819  0.40106797    -0.74300
O158        O  0.41079029  0.77795410  0.39700881    -0.74300
O159        O  0.39735631  0.81287447  0.38214912    -0.74200
O160        O  0.33250367  0.78919612  0.38554375    -0.74200
O161        O  0.36174718  0.81386999  0.41576124    -0.74200
O162        O  0.36778920  0.78822066  0.35208037    -0.74300
Ni163      Ni  0.37880353  0.76506185  0.39961804     1.25400
Ni164      Ni  0.36444614  0.80232075  0.38337339     1.25400
C165        C  0.37491687  0.76647717  0.34898917     0.88000
C166        C  0.36673577  0.80037331  0.43386149     0.87900
C167        C  0.32858522  0.76787481  0.39370111     0.88000
C168        C  0.41479440  0.79919429  0.38866882     0.88100
O169        O  0.16516314  0.79538058  0.14567157    -0.74200
O170        O  0.10208461  0.82070897  0.15573597    -0.74200
O171        O  0.13196709  0.79176118  0.18106814    -0.74300
O172        O  0.13548492  0.82424694  0.12016866    -0.74300
O173        O  0.11906408  0.79203170  0.10237186    -0.74200
O174        O  0.11637228  0.75941321  0.16299852    -0.74200
O175        O  0.08611629  0.78839302  0.13808020    -0.74200
O176        O  0.14943870  0.76324447  0.12750040    -0.74300
Ni177      Ni  0.13420714  0.80920673  0.15127585     1.25400
Ni178      Ni  0.11716331  0.77463616  0.13206686     1.25400
C179        C  0.16784111  0.77504903  0.13514659     0.88000
C180        C  0.08360325  0.80870932  0.14885517     0.87900
C181        C  0.12362053  0.77015828  0.18207470     0.88000
C182        C  0.12793003  0.81336776  0.10125238     0.88100
O183        O  0.83085537  0.85258515  0.19494213    -0.74200
O184        O  0.89693346  0.84876473  0.17576365    -0.74200
O185        O  0.86557095  0.81841945  0.19726270    -0.74300
O186        O  0.86230301  0.88300050  0.17328762    -0.74300
O187        O  0.87416992  0.89705296  0.20898661    -0.74200
O188        O  0.87610091  0.83248118  0.23349608    -0.74200
O189        O  0.90831664  0.86221932  0.21186639    -0.74200
O190        O  0.84216453  0.86719518  0.23063076    -0.74300
Ni191      Ni  0.86351863  0.85023155  0.18401973     1.25400
Ni192      Ni  0.87562122  0.86527003  0.22252423     1.25400
C193        C  0.82561033  0.86033358  0.21603315     0.88000
C194        C  0.91354229  0.85456980  0.19071114     0.87900
C195        C  0.87120165  0.81487929  0.21935954     0.88000
C196        C  0.86765295  0.90069459  0.18711170     0.88100
O197        O  0.22096707  0.86790880  0.86868142    -0.74200
O198        O  0.19141182  0.86674661  0.93099684    -0.74200
O199        O  0.21678914  0.83483028  0.90449157    -0.74300
O200        O  0.19554392  0.89975486  0.89536908    -0.74300
O201        O  0.16107457  0.88600891  0.87967061    -0.74200
O202        O  0.18293106  0.82106982  0.88776147    -0.74200
O203        O  0.15750781  0.85220681  0.91472878    -0.74200
O204        O  0.18672905  0.85457420  0.85229665    -0.74300
Ni205      Ni  0.20740017  0.86781670  0.90044642     1.25400
Ni206      Ni  0.17083129  0.85303824  0.88297144     1.25400
C207        C  0.20878278  0.86123424  0.85021382     0.88000
C208        C  0.16977842  0.85887106  0.93310160     0.87900
C209        C  0.20330939  0.81721224  0.89794496     0.88000
C210        C  0.17472182  0.90352414  0.88619306     0.88100
O211        O  0.14090637  0.09245410  0.78579275    -0.74200
O212        O  0.07580657  0.09922801  0.80808984    -0.74200
O213        O  0.10576856  0.12562020  0.77978105    -0.74300
O214        O  0.11116612  0.06602487  0.81406606    -0.74300
O215        O  0.12426952  0.08581142  0.84643915    -0.74200
O216        O  0.11897685  0.14539472  0.81204599    -0.74200
O217        O  0.08907203  0.11913010  0.84035563    -0.74200
O218        O  0.15412767  0.11221522  0.81812292    -0.74300
Ni219      Ni  0.10789968  0.09510807  0.79580938     1.25400
Ni220      Ni  0.12204973  0.11632522  0.83041576     1.25400
C221        C  0.15831613  0.10126325  0.79823953     0.88000
C222        C  0.07166952  0.11039826  0.82786792     0.87900
C223        C  0.11164307  0.14540115  0.79012924     0.88000
C224        C  0.11885210  0.06599824  0.83581582     0.88100
O225        O  0.80314364  0.11298486  0.16975721    -0.74200
O226        O  0.82769335  0.11948924  0.10573710    -0.74200
O227        O  0.80073614  0.14736607  0.13488425    -0.74300
O228        O  0.82960268  0.08471165  0.14054364    -0.74300
O229        O  0.79589511  0.06819373  0.12637899    -0.74200
O230        O  0.76751325  0.13028852  0.12000401    -0.74200
O231        O  0.79443519  0.10211057  0.09110413    -0.74200
O232        O  0.76922593  0.09675157  0.15525980    -0.74300
Ni233      Ni  0.81654269  0.11671755  0.13822589     1.25400
Ni234      Ni  0.78061841  0.09869688  0.12264834     1.25400
C235        C  0.78211415  0.10400080  0.17302645     0.88000
C236        C  0.81498046  0.11228000  0.08787094     0.87900
C237        C  0.77935951  0.14910146  0.12617828     0.88000
C238        C  0.81711711  0.06596350  0.13501646     0.88100
O239        O  0.82130946  0.17287569  0.86987410    -0.74200
O240        O  0.88370661  0.14421189  0.86549578    -0.74200
O241        O  0.84864041  0.14633879  0.90002314    -0.74300
O242        O  0.85616237  0.17105702  0.83578138    -0.74300
O243        O  0.87219012  0.20484764  0.85070351    -0.74200
O244        O  0.86566009  0.17980856  0.91477012    -0.74200
O245        O  0.90031248  0.17788618  0.88027177    -0.74200
O246        O  0.83743257  0.20646620  0.88512993    -0.74300
Ni247      Ni  0.85191047  0.15738511  0.86733154     1.25400
Ni248      Ni  0.86952508  0.19344232  0.88327379     1.25400
C249        C  0.81900275  0.19434853  0.87803283     0.88000
C250        C  0.90227226  0.15653139  0.87159836     0.87900
C251        C  0.85548651  0.15926944  0.91792455     0.88000
C252        C  0.86539624  0.19208536  0.83266332     0.88100
O253        O  0.17942596  0.64698158  0.64947317    -0.74200
O254        O  0.15245635  0.58321029  0.65084777    -0.74200
O255        O  0.17712045  0.61085035  0.68236923    -0.74300
O256        O  0.15459073  0.61928363  0.61756392    -0.74300
O257        O  0.18932013  0.60449850  0.60377544    -0.74200
O258        O  0.21167639  0.59602655  0.66838426    -0.74200
O259        O  0.18707309  0.56843808  0.63669347    -0.74200
O260        O  0.21399344  0.63202603  0.63545165    -0.74300
Ni261      Ni  0.16461920  0.61562257  0.65051196     1.25400
Ni262      Ni  0.20171260  0.59971105  0.63555623     1.25400
C263        C  0.20127965  0.64995213  0.64252246     0.88000
C264        C  0.16548769  0.56530668  0.64428398     0.87900
C265        C  0.19810582  0.60189513  0.68609144     0.88000
C266        C  0.16846170  0.61360399  0.59997857     0.88100
O267        O  0.13460754  0.35980354  0.72778408    -0.74200
O268        O  0.07524688  0.35586821  0.69339843    -0.74200
O269        O  0.10067409  0.32542167  0.72176606    -0.74300
O270        O  0.10941274  0.39015012  0.69921441    -0.74300
O271        O  0.12927886  0.37618371  0.66710244    -0.74200
O272        O  0.12036896  0.31153764  0.68959637    -0.74200
O273        O  0.09456832  0.34167884  0.66109653    -0.74200
O274        O  0.15439477  0.34581407  0.69574422    -0.74300
Ni275      Ni  0.10425215  0.35830841  0.71164074     1.25400
Ni276      Ni  0.12530196  0.34333704  0.67714640     1.25400
C277        C  0.15428104  0.35354609  0.71753415     0.88000
C278        C  0.07501418  0.34779403  0.67181429     0.87900
C279        C  0.10938194  0.30785791  0.70957068     0.88000
C280        C  0.12127232  0.39375268  0.67973343     0.88100
O281        O  0.14637625  0.70187473  0.39761916    -0.74200
O282        O  0.08337469  0.67481806  0.38939957    -0.74200
O283        O  0.11585046  0.67600919  0.42573928    -0.74300
O284        O  0.11390827  0.70080834  0.36149560    -0.74300
O285        O  0.13037082  0.66678751  0.34786304    -0.74200
O286        O  0.13210571  0.64182734  0.41236501    -0.74200
O287        O  0.09963499  0.64079993  0.37584347    -0.74200
O288        O  0.16263851  0.66774042  0.38426549    -0.74300
Ni289      Ni  0.11426374  0.68954860  0.39407618     1.25400
Ni290      Ni  0.13172580  0.65303027  0.37962281     1.25400
C291        C  0.16498245  0.68941985  0.39189929     0.88000
C292        C  0.08099303  0.65341535  0.38105446     0.87900
C293        C  0.12447227  0.65492889  0.42976268     0.88000
C294        C  0.12225398  0.68812478  0.34412322     0.88100
O295        O  0.84272816  0.25419708  0.61385609    -0.74200
O296        O  0.90465587  0.28390238  0.62124886    -0.74200
O297        O  0.87635787  0.25522358  0.64918085    -0.74300
O298        O  0.87100727  0.28252104  0.58601438    -0.74300
O299        O  0.85436578  0.31570206  0.60142655    -0.74200
O300        O  0.85787074  0.28748785  0.66461851    -0.74200
O301        O  0.88729554  0.31624329  0.63775789    -0.74200
O302        O  0.82533148  0.28717940  0.62859699    -0.74300
Ni303      Ni  0.87435921  0.26782820  0.61703104     1.25400
Ni304      Ni  0.85565090  0.30287831  0.63364278     1.25400
C305        C  0.82371195  0.26580642  0.61999640     0.88000
C306        C  0.90616167  0.30483897  0.63093592     0.87900
C307        C  0.86743348  0.26657826  0.66716066     0.88000
C308        C  0.86162293  0.30346203  0.58322462     0.88100
O309        O  0.83865884  0.60720860  0.30230451    -0.74200
O310        O  0.90153194  0.61236317  0.32965442    -0.74200
O311        O  0.87257037  0.64200176  0.30391412    -0.74300
O312        O  0.86763141  0.57756613  0.32812524    -0.74300
O313        O  0.88321748  0.56342162  0.29385920    -0.74200
O314        O  0.88834023  0.62794637  0.26966909    -0.74200
O315        O  0.91746536  0.59820353  0.29565173    -0.74200
O316        O  0.85442107  0.59333107  0.26810421    -0.74300
Ni317      Ni  0.86955044  0.61025823  0.31722725     1.25400
Ni318      Ni  0.88649957  0.59519675  0.28062082     1.25400
C319        C  0.83615423  0.60005692  0.28052129     0.88000
C320        C  0.91992308  0.60613534  0.31719127     0.87900
C321        C  0.88066470  0.64547441  0.28257134     0.88000
C322        C  0.87464533  0.55992233  0.31502330     0.88100
O323        O  0.76537200  0.33553707  0.38315527    -0.74200
O324        O  0.79747253  0.39664208  0.37747617    -0.74200
O325        O  0.76881811  0.36975901  0.34848800    -0.74300
O326        O  0.79396158  0.36235728  0.41230477    -0.74300
O327        O  0.82624765  0.34369402  0.39741222    -0.74200
O328        O  0.80150932  0.35211652  0.33347116    -0.74200
O329        O  0.83006192  0.37830750  0.36311943    -0.74200
O330        O  0.79771218  0.31747962  0.36750152    -0.74300
Ni331      Ni  0.78027475  0.36676031  0.38092398     1.25400
Ni332      Ni  0.81505970  0.34725712  0.36489269     1.25400
C333        C  0.77615275  0.31651150  0.37572305     0.88000
C334        C  0.81901730  0.39765577  0.36921407     0.87900
C335        C  0.78089770  0.36212480  0.33038599     0.88000
C336        C  0.81421603  0.35169363  0.41541571     0.88100
C337        C  0.87185979  0.53511621  0.32407013    -0.11700
C338        C  0.87673940  0.52900496  0.34829271     0.03800
C339        C  0.87115948  0.50584643  0.35675258    -0.12300
C340        C  0.86090684  0.48862821  0.34133268     0.18600
C341        C  0.85680954  0.49447631  0.31695213    -0.09300
C342        C  0.86253755  0.51752603  0.30845365    -0.02300
H343        H  0.87441968  0.50136168  0.37550240     0.05100
C344        C  0.85243255  0.46548435  0.35133951     0.20600
H345        H  0.85857962  0.52207904  0.28985102     0.10300
C346        C  0.83152893  0.46534012  0.36547178    -0.15600
C347        C  0.82085306  0.44360900  0.37271405     0.03300
C348        C  0.83114156  0.42134172  0.36543567    -0.11000
C349        C  0.85312758  0.42179736  0.35263116    -0.01000
C350        C  0.86379863  0.44359773  0.34568052    -0.06100
H351        H  0.82303780  0.48229148  0.37025982     0.06300
H352        H  0.86179656  0.40513830  0.34725578     0.09700
Br353      Br  0.84162427  0.47229536  0.29507298    -0.05900
Br354      Br  0.89156248  0.55128321  0.37033077    -0.02800
Br355      Br  0.79235533  0.44633040  0.39226995     0.00100
Br356      Br  0.89358977  0.44269309  0.32805954    -0.04300
C357        C  0.85787180  0.31265839  0.55844578    -0.11700
C358        C  0.85849559  0.33751701  0.55254947     0.03800
C359        C  0.85271194  0.34504434  0.52909644    -0.12300
C360        C  0.84632625  0.32814561  0.51139964     0.18600
C361        C  0.84658917  0.30337635  0.51699057    -0.09300
C362        C  0.85238966  0.29582829  0.54028984    -0.02300
H363        H  0.85283671  0.36414031  0.52473076     0.05100
C364        C  0.83828542  0.33645666  0.48745919     0.20600
H365        H  0.85183396  0.27668056  0.54439812     0.10300
C366        C  0.85535580  0.34100444  0.46937738    -0.15600
C367        C  0.84803503  0.34668478  0.44586646     0.03300
C368        C  0.82316674  0.34776420  0.44024444    -0.11000
C369        C  0.80620450  0.34412154  0.45874903    -0.01000
C370        C  0.81357787  0.33843598  0.48215294    -0.06100
H371        H  0.87442111  0.33973409  0.47349537     0.06300
H372        H  0.78706513  0.34493981  0.45486515     0.09700
Br373      Br  0.83843092  0.27927104  0.49349599    -0.05900
Br374      Br  0.86797812  0.36185196  0.57529747    -0.02800
Br375      Br  0.87284155  0.35363295  0.42266333     0.00100
Br376      Br  0.78930933  0.33275054  0.50620913    -0.04300
C377        C  0.94412492  0.60823638  0.32818835    -0.11700
C378        C  0.96531884  0.61142143  0.31432088     0.03800
C379        C  0.98733379  0.61533113  0.32592017    -0.12300
C380        C  0.98879858  0.61604487  0.35113073     0.18600
C381        C  0.96797727  0.61198552  0.36500186    -0.09300
C382        C  0.94590529  0.60810229  0.35351843    -0.02300
H383        H  0.00332181  0.61877295  0.31518074     0.05100
C384        C  0.01169698  0.62372422  0.36222240     0.20600
H385        H  0.92999079  0.60526544  0.36452296     0.10300
C386        C  0.01295481  0.64665210  0.37274468    -0.15600
C387        C  0.03501236  0.65647071  0.38003064     0.03300
C388        C  0.05658847  0.64314515  0.37656535    -0.11000
C389        C  0.05488105  0.61954791  0.36715237    -0.01000
C390        C  0.03274145  0.60987149  0.35997034    -0.06100
H391        H  0.99671057  0.65738440  0.37444624     0.06300
H392        H  0.07090860  0.60867585  0.36468505     0.12100
Br393      Br  0.96883200  0.61168832  0.39959719    -0.05900
Br394      Br  0.96563212  0.61268900  0.27968336    -0.02800
Br395      Br  0.03362799  0.68840797  0.39356553     0.00100
Br396      Br  0.03208426  0.57781597  0.34682983    -0.04300
C397        C  0.93012270  0.31580493  0.63416748    -0.11700
C398        C  0.93769520  0.32491585  0.65663819     0.03800
C399        C  0.96143271  0.33302407  0.65948094    -0.12300
C400        C  0.97773274  0.33267901  0.64008470     0.18600
C401        C  0.96977893  0.32458830  0.61736426    -0.09300
C402        C  0.94620999  0.31598833  0.61463949    -0.02300
H403        H  0.96746158  0.33881496  0.67714261     0.05100
C404        C  0.00344124  0.33824322  0.64470944     0.20600
H405        H  0.94042613  0.30931723  0.59720493     0.10300
C406        C  0.02053532  0.31976626  0.64191470    -0.15600
C407        C  0.04445642  0.32304277  0.64920964     0.03300
C408        C  0.05151048  0.34507602  0.65979302    -0.11000
C409        C  0.03464533  0.36385660  0.66178476    -0.01000
C410        C  0.01080588  0.36066895  0.65419381    -0.06100
H411        H  0.01497429  0.30230516  0.63503290     0.06300
H412        H  0.03991094  0.38089761  0.66984793     0.09700
Br413      Br  0.99034488  0.32514676  0.58953016    -0.05900
Br414      Br  0.91714494  0.32462091  0.68452612    -0.02800
Br415      Br  0.06584610  0.29591009  0.64683943     0.00100
Br416      Br  0.98896990  0.38733311  0.65741520    -0.04300
C417        C  0.16041333  0.61778567  0.57494631    -0.11700
C418        C  0.17663714  0.62580427  0.55695954     0.03800
C419        C  0.16836090  0.62986922  0.53354361    -0.12300
C420        C  0.14405413  0.62640596  0.52763443     0.18600
C421        C  0.12779614  0.61838375  0.54539525    -0.09300
C422        C  0.13602458  0.61418037  0.56891005    -0.02300
H423        H  0.18081676  0.63650682  0.51997722     0.05100
C424        C  0.13600290  0.63317841  0.50324533     0.20600
H425        H  0.12333824  0.60810942  0.58251190     0.10300
C426        C  0.13339511  0.61539299  0.48548750    -0.15600
C427        C  0.12872083  0.62179569  0.46147378     0.03300
C428        C  0.12674193  0.64649594  0.45503550    -0.11000
C429        C  0.12830834  0.66407071  0.47326020    -0.01000
C430        C  0.13300077  0.65760910  0.49710284    -0.06100
H431        H  0.13555436  0.59651770  0.49024550     0.06300
H432        H  0.12679064  0.68309551  0.46887647     0.09700
Br433      Br  0.09420825  0.61380857  0.53842119    -0.05900
Br434      Br  0.20975334  0.63378264  0.56352526    -0.02800
Br435      Br  0.12483247  0.59590959  0.43876055     0.00100
Br436      Br  0.13601990  0.68284559  0.52061966    -0.04300
C437        C  0.15597655  0.54058818  0.64682214    -0.11700
C438        C  0.16069561  0.52247733  0.62960391     0.03800
C439        C  0.15320686  0.49873718  0.63399696    -0.12300
C440        C  0.14127532  0.49265300  0.65546243     0.18600
C441        C  0.13654686  0.51071269  0.67265433    -0.09300
C442        C  0.14351635  0.53454108  0.66803824    -0.02300
H443        H  0.15704657  0.48485366  0.62079717     0.05100
C444        C  0.13567166  0.46708434  0.66040967     0.20600
H445        H  0.14027188  0.54817897  0.68164992     0.10300
C446        C  0.15481183  0.45111969  0.66465398    -0.15600
C447        C  0.15036857  0.42697069  0.67048390     0.03300
C448        C  0.12643299  0.41858670  0.67219458    -0.11000
C449        C  0.10726906  0.43442435  0.66764200    -0.01000
C450        C  0.11174182  0.45851979  0.66142711    -0.06100
H451        H  0.17325762  0.45762262  0.66392120     0.06300
H452        H  0.08882399  0.42797872  0.66877264     0.09700
Br453      Br  0.12261071  0.50338557  0.70353163    -0.05900
Br454      Br  0.17684658  0.52912850  0.59967369    -0.02800
Br455      Br  0.17748353  0.40661854  0.67760983     0.00100
Br456      Br  0.08477286  0.47887445  0.65394412    -0.04300
C457        C  0.86762222  0.20224886  0.80803883    -0.11700
C458        C  0.87274811  0.18775776  0.78770376     0.03800
C459        C  0.87348154  0.19822790  0.76467990    -0.12300
C460        C  0.86938146  0.22301917  0.76153835     0.18600
C461        C  0.86497452  0.23758318  0.78178574    -0.09300
C462        C  0.86417854  0.22720254  0.80477514    -0.02300
H463        H  0.87726410  0.18700690  0.74914824     0.05100
C464        C  0.86927294  0.23345013  0.73701277     0.20600
H465        H  0.86038616  0.23865937  0.82013017     0.10300
C466        C  0.84712973  0.23721183  0.72537898    -0.15600
C467        C  0.84626471  0.24797907  0.70254703     0.03300
C468        C  0.86781159  0.25514939  0.69109335    -0.11000
C469        C  0.88998866  0.25093361  0.70249763    -0.01000
C470        C  0.89083094  0.24026266  0.72540131    -0.06100
H471        H  0.83048833  0.23181495  0.73414399     0.06300
H472        H  0.90663810  0.25629090  0.69372182     0.09700
Br473      Br  0.86000933  0.27175912  0.77877685    -0.05900
Br474      Br  0.88027616  0.15399218  0.79023710    -0.02800
Br475      Br  0.81540024  0.25155579  0.68724467     0.00100
Br476      Br  0.92164609  0.23589604  0.74048501    -0.04300
C477        C  0.82358257  0.11727666  0.06322484    -0.11700
C478        C  0.82127399  0.10037344  0.04438396     0.03800
C479        C  0.82816519  0.10682163  0.02094824    -0.12300
C480        C  0.83719383  0.13000463  0.01592553     0.18600
C481        C  0.83950972  0.14687518  0.03474871    -0.09300
C482        C  0.83307314  0.14029978  0.05821600    -0.02300
H483        H  0.82622949  0.09380043  0.00650502     0.05100
C484        C  0.84245456  0.13676613  0.99070189     0.20600
H485        H  0.83451137  0.15361476  0.07245507     0.10300
C486        C  0.82311738  0.13979888  0.97469538    -0.15600
C487        C  0.82714772  0.14685225  0.95082230     0.03300
C488        C  0.85087788  0.15084401  0.94263790    -0.11000
C489        C  0.87024730  0.14786468  0.95863613    -0.01000
C490        C  0.86621923  0.14060050  0.98249837    -0.06100
H491        H  0.80478107  0.13712222  0.98095747     0.06300
H492        H  0.88853348  0.15104309  0.95250679     0.09700
Br493      Br  0.84958025  0.17961437  0.02902646    -0.05900
Br494      Br  0.80955892  0.06814116  0.04976245    -0.02800
Br495      Br  0.79959244  0.15259499  0.93064496     0.00100
Br496      Br  0.89362795  0.13565476  0.00305204    -0.04300
C497        C  0.11044091  0.16864999  0.77680241    -0.11700
C498        C  0.10009742  0.17092190  0.75347889     0.03800
C499        C  0.09985868  0.19343947  0.74201865    -0.12300
C500        C  0.10977792  0.21377129  0.75318903     0.18600
C501        C  0.12007985  0.21172282  0.77618829    -0.09300
C502        C  0.12033033  0.18936426  0.78779667    -0.02300
H503        H  0.09188679  0.19514176  0.72424791     0.05100
C504        C  0.10908149  0.23712794  0.74067674     0.20600
H505        H  0.12849304  0.18827370  0.80551113     0.10300
C506        C  0.08890698  0.25199855  0.74360978    -0.15600
C507        C  0.08820691  0.27491461  0.73302657     0.03300
C508        C  0.10801765  0.28310576  0.71923024    -0.11000
C509        C  0.12783241  0.26771517  0.71567225    -0.01000
C510        C  0.12852216  0.24489877  0.72638545    -0.06100
H511        H  0.07378853  0.24583101  0.75440076     0.06300
H512        H  0.14322516  0.27375808  0.70520559     0.09700
Br513      Br  0.13407256  0.23902442  0.79233041    -0.05900
Br514      Br  0.08560326  0.14472021  0.73591300    -0.02800
Br515      Br  0.05943140  0.29366837  0.73734585     0.00100
Br516      Br  0.15660174  0.22522148  0.72173454    -0.04300
C517        C  0.04652479  0.11425409  0.83609564    -0.11700
C518        C  0.02751721  0.09804741  0.83067142     0.03800
C519        C  0.00390740  0.10349696  0.83780286    -0.12300
C520        C  0.99871462  0.12499213  0.85010902     0.18600
C521        C  0.01768958  0.14084485  0.85604172    -0.09300
C522        C  0.04129391  0.13533331  0.84918439    -0.02300
H523        H  0.98942927  0.09105739  0.83344097     0.05100
C524        C  0.97336332  0.13119412  0.85567581     0.20600
H525        H  0.05553414  0.14807995  0.85343195     0.10300
C526        C  0.96590231  0.13315742  0.87982382    -0.15600
C527        C  0.94259913  0.14106763  0.88550504     0.03300
C528        C  0.92632117  0.14659806  0.86686220    -0.11000
C529        C  0.93343479  0.14371542  0.84280433    -0.01000
C530        C  0.95680591  0.13632505  0.83707815    -0.06100
H531        H  0.97842760  0.12904459  0.89425385     0.06300
H532        H  0.92102370  0.14815344  0.82837968     0.09700
Br533      Br  0.01214214  0.17103755  0.87209528    -0.05900
Br534      Br  0.03249297  0.06787906  0.81437403    -0.02800
Br535      Br  0.93363580  0.14382917  0.91877549     0.00100
Br536      Br  0.96568158  0.13532736  0.80362649    -0.04300
C537        C  0.16609820  0.92839182  0.88329643    -0.11700
C538        C  0.18093389  0.94666620  0.87353649     0.03800
C539        C  0.17153348  0.96974522  0.86987647    -0.12300
C540        C  0.14761667  0.97506419  0.87614186     0.18600
C541        C  0.13306734  0.95704544  0.88668002    -0.09300
C542        C  0.14231976  0.93383524  0.89000767    -0.02300
H543        H  0.18267688  0.98341056  0.86131762     0.05100
C544        C  0.13760683  0.99860266  0.86888139     0.20600
H545        H  0.13091702  0.91997673  0.89788731     0.10300
C546        C  0.11978044  0.99909642  0.85098371    -0.15600
C547        C  0.11225312  0.02089678  0.84082223     0.03300
C548        C  0.12300969  0.04281384  0.84840824    -0.11000
C549        C  0.13989253  0.04227851  0.86735715    -0.01000
C550        C  0.14727096  0.02042845  0.87752654    -0.06100
H551        H  0.11223959  0.98230623  0.84429999     0.06300
H552        H  0.14824321  0.05882427  0.87365302     0.09700
Br553      Br  0.10063387  0.96337260  0.89695944    -0.05900
Br554      Br  0.21335273  0.94069841  0.86288779    -0.02800
Br555      Br  0.08726905  0.01902459  0.81685142     0.00100
Br556      Br  0.17096158  0.02126769  0.90276184    -0.04300
C557        C  0.87251716  0.79007161  0.22849111    -0.11700
C558        C  0.86008586  0.78292472  0.24946478     0.03800
C559        C  0.86231949  0.75923450  0.25789939    -0.12300
C560        C  0.87698843  0.74257092  0.24578488     0.18600
C561        C  0.88913574  0.74967020  0.22460879    -0.09300
C562        C  0.88670198  0.77327974  0.21604669    -0.02300
H563        H  0.85248217  0.75371793  0.27388672     0.05100
C564        C  0.87878596  0.71768978  0.25512143     0.20600
H565        H  0.89633406  0.77871073  0.19990132     0.10300
C566        C  0.86911185  0.69869790  0.24147733    -0.15600
C567        C  0.86998387  0.67494931  0.24996036     0.03300
C568        C  0.88052053  0.67002193  0.27257084    -0.11000
C569        C  0.88995261  0.68903877  0.28634509    -0.01000
C570        C  0.88932687  0.71276204  0.27770932    -0.06100
H571        H  0.86055860  0.70244403  0.22429948     0.06300
H572        H  0.89800146  0.68538374  0.30378406     0.09700
Br573      Br  0.90996146  0.72811749  0.20732699    -0.05900
Br574      Br  0.83877648  0.80438047  0.26629437    -0.02800
Br575      Br  0.85486161  0.65030292  0.23081453     0.00100
Br576      Br  0.90364758  0.73767562  0.29706498    -0.04300
C577        C  0.86507096  0.92572309  0.17819270    -0.11700
C578        C  0.86596707  0.93161088  0.15335474     0.03800
C579        C  0.86051329  0.95505536  0.14580253    -0.12300
C580        C  0.85436786  0.97286863  0.16254175     0.18600
C581        C  0.85427649  0.96738324  0.18728999    -0.09300
C582        C  0.85979424  0.94400927  0.19494697    -0.02300
H583        H  0.86061893  0.95933882  0.12671979     0.05100
C584        C  0.84588837  0.99639269  0.15373234     0.20600
H585        H  0.85886070  0.93990523  0.21403953     0.10300
C586        C  0.82233893  0.99802982  0.14494613    -0.15600
C587        C  0.81272109  0.02020039  0.13785849     0.03300
C588        C  0.82701003  0.04148944  0.13962391    -0.11000
C589        C  0.85105394  0.03940196  0.14761256    -0.01000
C590        C  0.86051793  0.01708087  0.15457727    -0.06100
H591        H  0.81116631  0.98194209  0.14412670     0.06300
H592        H  0.86251260  0.05522949  0.14888424     0.09700
Br593      Br  0.84508694  0.99077584  0.21108472    -0.05900
Br594      Br  0.87477499  0.90894389  0.12871027    -0.02800
Br595      Br  0.77974590  0.01928059  0.12699009     0.00100
Br596      Br  0.89337967  0.01557032  0.16529963    -0.04300
C597        C  0.12291303  0.75739846  0.20553584    -0.11700
C598        C  0.10643450  0.73840830  0.21040722     0.03800
C599        C  0.10692064  0.72677268  0.23279058    -0.12300
C600        C  0.12336848  0.73378905  0.25060897     0.18600
C601        C  0.13968799  0.75269458  0.24594617    -0.09300
C602        C  0.13935739  0.76433324  0.22357851    -0.02300
H603        H  0.09414474  0.71237634  0.23649205     0.05100
C604        C  0.12270525  0.72163888  0.27423615     0.20600
H605        H  0.15214892  0.77880173  0.22027146     0.10300
C606        C  0.14077631  0.70502960  0.28020370    -0.15600
C607        C  0.14087319  0.69354440  0.30269718     0.03300
C608        C  0.12245313  0.69861177  0.31959057    -0.11000
C609        C  0.10432360  0.71521987  0.31336911    -0.01000
C610        C  0.10432463  0.72666482  0.29091341    -0.06100
H611        H  0.15506405  0.70128502  0.26741340     0.06300
H612        H  0.09011357  0.71944589  0.32608863     0.09700
Br613      Br  0.16222429  0.76365238  0.26983929    -0.05900
Br614      Br  0.08177356  0.72828368  0.18822643    -0.02800
Br615      Br  0.16764703  0.67271680  0.30963810     0.00100
Br616      Br  0.07940538  0.74971362  0.28408596    -0.04300
C617        C  0.15943878  0.85580895  0.95721130    -0.11700
C618        C  0.15947960  0.87457338  0.97429776     0.03800
C619        C  0.15193244  0.86984963  0.99791460    -0.12300
C620        C  0.14490133  0.84644407  0.00482936     0.18600
C621        C  0.14427615  0.82788019  0.98747982    -0.09300
C622        C  0.15121483  0.83277875  0.96380573    -0.02300
H623        H  0.15220777  0.88426791  0.01110345     0.05100
C624        C  0.13968435  0.84117895  0.03038342     0.20600
H625        H  0.15143160  0.81819581  0.95078330     0.10300
C626        C  0.11661181  0.83302229  0.03694650    -0.15600
C627        C  0.11210143  0.82456271  0.06027568     0.03300
C628        C  0.13069863  0.82496054  0.07759129    -0.11000
C629        C  0.15330922  0.83454522  0.07143279    -0.01000
C630        C  0.15803858  0.84228983  0.04792865    -0.06100
H631        H  0.10236046  0.83232169  0.02358490     0.06300
H632        H  0.16779849  0.83462066  0.08456131     0.09700
Br633      Br  0.13626779  0.79505375  0.99556714    -0.05900
Br634      Br  0.16940662  0.90681161  0.96610828    -0.02800
Br635      Br  0.08037716  0.81256758  0.06750447     0.00100
Br636      Br  0.19046772  0.85183221  0.04019746    -0.04300
C637        C  0.93909081  0.85126395  0.18395961    -0.11700
C638        C  0.94697856  0.85207640  0.15971466     0.03800
C639        C  0.97080275  0.84616351  0.15412508    -0.12300
C640        C  0.98705119  0.83958815  0.17228423     0.18600
C641        C  0.97963382  0.83980654  0.19651388    -0.09300
C642        C  0.95581347  0.84563917  0.20218921    -0.02300
H643        H  0.97667186  0.84647337  0.13548228     0.05100
C644        C  0.01154430  0.83205703  0.16553799     0.20600
H645        H  0.95016649  0.84491553  0.22088389     0.10300
C646        C  0.03089208  0.84774500  0.16970305    -0.15600
C647        C  0.05448347  0.84098296  0.16401086     0.03300
C648        C  0.05896473  0.81785027  0.15393191    -0.11000
C649        C  0.03921293  0.80245696  0.14937022    -0.01000
C650        C  0.01572342  0.80937455  0.15507750    -0.06100
H651        H  0.02757732  0.86535222  0.17754567     0.06300
H652        H  0.04196937  0.78468122  0.14172568     0.09700
Br653      Br  0.00107680  0.83106552  0.22226470    -0.05900
Br654      Br  0.92665264  0.86187741  0.13342968    -0.02800
Br655      Br  0.07904644  0.86469482  0.17049206     0.00100
Br656      Br  0.98998549  0.78688069  0.14913354    -0.04300
C657        C  0.18929923  0.70059196  0.39389870    -0.11700
C658        C  0.20995693  0.69101215  0.38224174     0.03800
C659        C  0.23197692  0.70326944  0.38366619    -0.12300
C660        C  0.23408103  0.72483575  0.39659085     0.18600
C661        C  0.21388247  0.73426028  0.40853018    -0.09300
C662        C  0.19175512  0.72219091  0.40711682    -0.02300
H663        H  0.24761066  0.69602051  0.37445891     0.05100
C664        C  0.25754267  0.73732674  0.39690719     0.20600
H665        H  0.17636740  0.72991067  0.41632216     0.10300
C666        C  0.26428801  0.75138594  0.37696168    -0.15600
C667        C  0.28720847  0.76192397  0.37571890     0.03300
C668        C  0.30376915  0.75832615  0.39472962    -0.11000
C669        C  0.29683958  0.74432084  0.41473474    -0.01000
C670        C  0.27388719  0.73392008  0.41596982    -0.06100
H671        H  0.25185343  0.75366542  0.36205095     0.06300
H672        H  0.30939243  0.74128760  0.42938744     0.09700
Br673      Br  0.21566731  0.76377461  0.42653352    -0.05900
Br674      Br  0.20990682  0.66197978  0.36326683    -0.02800
Br675      Br  0.29552266  0.77902472  0.34668462     0.00100
Br676      Br  0.26585945  0.71451915  0.44355734    -0.04300
C677        C  0.80019450  0.86144357  0.22390281    -0.11700
C678        C  0.78284652  0.84421636  0.21650267     0.03800
C679        C  0.75939442  0.84529247  0.22570638    -0.12300
C680        C  0.75285026  0.86319092  0.24228221     0.18600
C681        C  0.77002224  0.88042675  0.24958582    -0.09300
C682        C  0.79341655  0.87952093  0.24030953    -0.02300
H683        H  0.74635970  0.83163543  0.22050110     0.05100
C684        C  0.72891521  0.86191693  0.25376762     0.20600
H685        H  0.80650450  0.89278640  0.24630983     0.10300
C686        C  0.72443144  0.84319827  0.27017694    -0.15600
C687        C  0.70236901  0.84149676  0.28217334     0.03300
C688        C  0.68434559  0.85909895  0.27805187    -0.11000
C689        C  0.68866061  0.87743912  0.26097067    -0.01000
C690        C  0.71072120  0.87887376  0.24877123    -0.06100
H691        H  0.73822520  0.82977723  0.27362956     0.06300
H692        H  0.67489849  0.89078479  0.25717310     0.09700
Br693      Br  0.76285123  0.90446467  0.27342597    -0.05900
Br694      Br  0.79038755  0.81742327  0.19586539    -0.02800
Br695      Br  0.69772007  0.81367704  0.30250590     0.00100
Br696      Br  0.71505373  0.90379143  0.22503464    -0.04300
C697        C  0.55548211  0.84336377  0.34296183    -0.11700
C698        C  0.55248473  0.83928440  0.36804020     0.03800
C699        C  0.52980276  0.83282347  0.37713391    -0.12300
C700        C  0.50992594  0.83050018  0.36176218     0.18600
C701        C  0.51256702  0.83541947  0.33704083    -0.09300
C702        C  0.53515412  0.84179778  0.32783990    -0.02300
H703        H  0.52768788  0.82934651  0.39625897     0.05100
C704        C  0.48663327  0.82216109  0.37150384     0.20600
H705        H  0.53689265  0.84486248  0.30861404     0.10300
C706        C  0.46995725  0.83912767  0.37994659    -0.15600
C707        C  0.44672707  0.83193937  0.38683371     0.03300
C708        C  0.43993962  0.80737187  0.38511351    -0.11000
C709        C  0.45723126  0.79029819  0.37793402    -0.01000
C710        C  0.48040504  0.79753182  0.37109900    -0.06100
H711        H  0.47488127  0.85807484  0.38068536     0.06300
H712        H  0.45241842  0.77135663  0.37660178     0.09700
Br713      Br  0.48586254  0.83298655  0.31513237    -0.05900
Br714      Br  0.57809224  0.84286779  0.39113647    -0.02800
Br715      Br  0.42543070  0.85632783  0.39907211     0.00100
Br716      Br  0.50268552  0.77336864  0.36028820    -0.04300
C717        C  0.27623461  0.86271010  0.71064303    -0.11700
C718        C  0.25974669  0.88096294  0.71737010     0.03800
C719        C  0.24975409  0.88088954  0.74054192    -0.12300
C720        C  0.25606465  0.86307204  0.75737420     0.18600
C721        C  0.27313515  0.84541720  0.75105333    -0.09300
C722        C  0.28310277  0.84537253  0.72788782    -0.02300
H723        H  0.23686192  0.89472840  0.74544034     0.05100
C724        C  0.24411235  0.86278167  0.78118037     0.20600
H725        H  0.29582075  0.83131390  0.72317051     0.10300
C726        C  0.22702692  0.84474439  0.78620646    -0.15600
C727        C  0.21522729  0.84388239  0.80849587     0.03300
C728        C  0.22045810  0.86144977  0.82622979    -0.11000
C729        C  0.23769146  0.87942943  0.82111725    -0.01000
C730        C  0.24938551  0.88027109  0.79878185    -0.06100
H731        H  0.22299797  0.83115331  0.77274111     0.06300
H732        H  0.24199553  0.89300761  0.83450519     0.09700
Br733      Br  0.28344679  0.82113373  0.77353744    -0.05900
Br734      Br  0.25092133  0.90711676  0.69632519    -0.02800
Br735      Br  0.19349307  0.81733487  0.81400856     0.00100
Br736      Br  0.27286384  0.90521841  0.79330910    -0.04300
C737        C  0.27068151  0.78880551  0.64229408    -0.11700
C738        C  0.27815431  0.76991534  0.65784572     0.03800
C739        C  0.26620528  0.74762143  0.65725200    -0.12300
C740        C  0.24680701  0.74372728  0.64154728     0.18600
C741        C  0.23905203  0.76251801  0.62637107    -0.09300
C742        C  0.25099904  0.78475656  0.62676724    -0.02300
H743        H  0.27197968  0.73323947  0.66921400     0.05100
C744        C  0.23479004  0.71994793  0.64140737     0.20600
H745        H  0.24479544  0.79896354  0.61482453     0.10300
C746        C  0.21903995  0.71386346  0.66024257    -0.15600
C747        C  0.20775179  0.69122582  0.66093452     0.03300
C748        C  0.21217065  0.67431750  0.64240688    -0.11000
C749        C  0.22816893  0.68046185  0.62370635    -0.01000
C750        C  0.23946355  0.70304734  0.62311353    -0.06100
H751        H  0.21576831  0.72668961  0.67461079     0.06300
H752        H  0.23194891  0.66761508  0.60948636     0.09700
Br753      Br  0.21186024  0.75877815  0.60527228    -0.05900
Br754      Br  0.30334905  0.77347372  0.68139207    -0.02800
Br755      Br  0.18821347  0.68383932  0.68860980     0.00100
Br756      Br  0.26173464  0.70978725  0.59745308    -0.04300
C757        C  0.32502139  0.84651663  0.57489950    -0.11700
C758        C  0.34978087  0.84696834  0.56869950     0.03800
C759        C  0.35685946  0.84183619  0.54504234    -0.12300
C760        C  0.33967839  0.83651497  0.52730306     0.18600
C761        C  0.31499733  0.83732228  0.53311124    -0.09300
C762        C  0.30786505  0.84232794  0.55670704    -0.02300
H763        H  0.37588698  0.84143428  0.54057447     0.05100
C764        C  0.34776461  0.82766746  0.50360403     0.20600
H765        H  0.28878589  0.84222109  0.56095826     0.10300
C766        C  0.34434635  0.80318765  0.49826360    -0.15600
C767        C  0.35096962  0.79384631  0.47589941     0.03300
C768        C  0.36145921  0.80916727  0.45837474    -0.11000
C769        C  0.36513476  0.83369828  0.46386648    -0.01000
C770        C  0.35851852  0.84297755  0.48638447    -0.06100
H771        H  0.33600763  0.79136262  0.51147823     0.06300
H772        H  0.37298833  0.84571244  0.45053604     0.09700
Br773      Br  0.29040484  0.83137439  0.50945865    -0.05900
Br774      Br  0.37479920  0.85517236  0.59123011    -0.02800
Br775      Br  0.34312149  0.76056207  0.46990900     0.00100
Br776      Br  0.36355300  0.87671662  0.49250767    -0.04300
C777        C  0.30076978  0.10137261  0.73699071    -0.11700
C778        C  0.29021378  0.07895196  0.74290950     0.03800
C779        C  0.26726202  0.07823092  0.75348437    -0.12300
C780        C  0.25476678  0.09967500  0.75844526     0.18600
C781        C  0.26544725  0.12206509  0.75272588    -0.09300
C782        C  0.28820870  0.12277449  0.74186493    -0.02300
H783        H  0.25903981  0.06093488  0.75764928     0.05100
C784        C  0.23024749  0.09850142  0.76879954     0.20600
H785        H  0.29627729  0.14009926  0.73748508     0.10300
C786        C  0.22712725  0.10056612  0.79377621    -0.15600
C787        C  0.20398915  0.10097938  0.80396387     0.03300
C788        C  0.18338312  0.09940321  0.78890097    -0.11000
C789        C  0.18679142  0.09667721  0.76389503    -0.01000
C790        C  0.20991446  0.09628517  0.75384846    -0.06100
H791        H  0.24279478  0.10207085  0.80537027     0.06300
H792        H  0.17138746  0.09545867  0.75193136     0.09700
Br793      Br  0.24948108  0.15204543  0.75937209    -0.05900
Br794      Br  0.30595926  0.04896987  0.73572044    -0.02800
Br795      Br  0.20216277  0.10286503  0.83851465     0.00100
Br796      Br  0.21294560  0.09352468  0.71949647    -0.04300
C797        C  0.36026064  0.04087584  0.67917728    -0.11700
C798        C  0.35936517  0.03619923  0.65410170     0.03800
C799        C  0.35531319  0.01263968  0.64594640    -0.12300
C800        C  0.35194391  0.99367242  0.66234881     0.18600
C801        C  0.35332390  0.99814944  0.68722858    -0.09300
C802        C  0.35765801  0.02152186  0.69542889    -0.02300
H803        H  0.35422207  0.00915662  0.62675170     0.05100
C804        C  0.34490494  0.96966090  0.65357443     0.20600
H805        H  0.35810238  0.02466472  0.71470409     0.10300
C806        C  0.36154748  0.95069418  0.65440040    -0.15600
C807        C  0.35423769  0.92689760  0.64998888     0.03300
C808        C  0.32963089  0.92189665  0.64503937    -0.11000
C809        C  0.31350232  0.94138009  0.64265310    -0.01000
C810        C  0.32094990  0.96504604  0.64683784    -0.06100
H811        H  0.38013948  0.95436596  0.65924117     0.06300
H812        H  0.29465857  0.93824053  0.63851547     0.09700
Br813      Br  0.34775804  0.97319976  0.71071985    -0.05900
Br814      Br  0.36384620  0.06069895  0.62995244    -0.02800
Br815      Br  0.37896883  0.90263494  0.65103801     0.00100
Br816      Br  0.29731035  0.99028872  0.64493746    -0.04300
C817        C  0.76365287  0.29304978  0.37664669    -0.11700
C818        C  0.76426314  0.27701803  0.35691842     0.03800
C819        C  0.75344826  0.25427841  0.35888233    -0.12300
C820        C  0.74183294  0.24722204  0.38022388     0.18600
C821        C  0.74057023  0.26346560  0.39968011    -0.09300
C822        C  0.75132225  0.28629067  0.39772518    -0.02300
H823        H  0.75424351  0.24193914  0.34375335     0.05100
C824        C  0.73200670  0.22248477  0.38199292     0.20600
H825        H  0.75055870  0.29856093  0.41290942     0.10300
C826        C  0.74397368  0.20546483  0.39634042    -0.15600
C827        C  0.73629799  0.18136971  0.39719963     0.03300
C828        C  0.71626163  0.17385556  0.38313699    -0.11000
C829        C  0.70404768  0.19131963  0.36921275    -0.01000
C830        C  0.71173250  0.21536853  0.36857939    -0.06100
H831        H  0.75958311  0.21095625  0.40676901     0.06300
H832        H  0.68852162  0.18629726  0.35845941     0.09700
Br833      Br  0.72424883  0.25525309  0.42909283    -0.05900
Br834      Br  0.77851684  0.28566573  0.32650038    -0.02800
Br835      Br  0.75402506  0.16039352  0.41839989     0.00100
Br836      Br  0.69381005  0.23797870  0.34939334    -0.04300
C837        C  0.77280133  0.10188778  0.19772983    -0.11700
C838        C  0.75003848  0.11112245  0.20408073     0.03800
C839        C  0.74199015  0.10915298  0.22786598    -0.12300
C840        C  0.75631495  0.09807054  0.24554362     0.18600
C841        C  0.77897036  0.08856399  0.23915775    -0.09300
C842        C  0.78716498  0.09079674  0.21540297    -0.02300
H843        H  0.72458665  0.11659920  0.23270215     0.05100
C844        C  0.74696555  0.09670971  0.27040397     0.20600
H845        H  0.80464358  0.08350305  0.21060501     0.10300
C846        C  0.72640076  0.08259064  0.27497018    -0.15600
C847        C  0.71533054  0.08289734  0.29760122     0.03300
C848        C  0.72504322  0.09733765  0.31607900    -0.11000
C849        C  0.74607334  0.11079596  0.31180503    -0.01000
C850        C  0.75685288  0.11090726  0.28903057    -0.06100
H851        H  0.71866224  0.07169434  0.26070084     0.06300
H852        H  0.75346889  0.12214365  0.32590981     0.09700
Br853      Br  0.79887017  0.07167904  0.26193868    -0.05900
Br854      Br  0.73002337  0.12803217  0.18141416    -0.02800
Br855      Br  0.68727770  0.06307816  0.30252880     0.00100
Br856      Br  0.78365073  0.13231695  0.28374920    -0.04300
C857        C  0.66881840  0.03663180  0.37425736    -0.11700
C858        C  0.68387539  0.01878806  0.36419400     0.03800
C859        C  0.67455184  0.99584165  0.35935555    -0.12300
C860        C  0.65041142  0.99031684  0.36444655     0.18600
C861        C  0.63555697  0.00778128  0.37520661    -0.09300
C862        C  0.64475306  0.03086945  0.37982964    -0.02300
H863        H  0.68598674  0.98242125  0.35094171     0.05100
C864        C  0.64099845  0.96653216  0.35722609     0.20600
H865        H  0.63304663  0.04442297  0.38762771     0.10300
C866        C  0.64514492  0.94654800  0.37208794    -0.15600
C867        C  0.63903328  0.92322826  0.36453337     0.03300
C868        C  0.62882742  0.91964291  0.34130165    -0.11000
C869        C  0.62375926  0.94008656  0.32699408    -0.01000
C870        C  0.62978225  0.96331948  0.33475964    -0.06100
H871        H  0.65365799  0.94909341  0.38949864     0.06300
H872        H  0.61581120  0.93805434  0.30926846     0.09700
Br873      Br  0.60266806  0.00084954  0.38350744    -0.05900
Br874      Br  0.71656537  0.02526835  0.35462023    -0.02800
Br875      Br  0.64552011  0.89768124  0.38717612     0.00100
Br876      Br  0.62352280  0.99008268  0.31359996    -0.04300
C877        C  0.68547128  0.19577321  0.62236430    -0.11700
C878        C  0.69179244  0.21088705  0.60275348     0.03800
C879        C  0.71492465  0.22081841  0.60146684    -0.12300
C880        C  0.73210676  0.21587014  0.61928753     0.18600
C881        C  0.72610390  0.20035211  0.63855257    -0.09300
C882        C  0.70298344  0.19024680  0.63982673    -0.02300
H883        H  0.71951954  0.23265563  0.58655013     0.05100
C884        C  0.75553067  0.22849439  0.61823192     0.20600
H885        H  0.69841275  0.17876098  0.65501297     0.10300
C886        C  0.75601139  0.25354154  0.62167092    -0.15600
C887        C  0.77774462  0.26636713  0.62132086     0.03300
C888        C  0.79978381  0.25384756  0.61796980    -0.11000
C889        C  0.79897087  0.22880156  0.61347508    -0.01000
C890        C  0.77710432  0.21620080  0.61330349    -0.06100
H891        H  0.73928600  0.26318258  0.62469883     0.06300
H892        H  0.81542788  0.21879027  0.61029877     0.09700
Br893      Br  0.74826314  0.19376615  0.66434509    -0.05900
Br894      Br  0.67016904  0.21801051  0.57659980    -0.02800
Br895      Br  0.77529242  0.30086023  0.62467480     0.00100
Br896      Br  0.77748987  0.18242267  0.60552749    -0.04300
C897        C  0.54999650  0.14675109  0.63860237    -0.11700
C898        C  0.53199188  0.16348278  0.64546783     0.03800
C899        C  0.50917890  0.15519622  0.65213233    -0.12300
C900        C  0.50377794  0.13051017  0.65216285     0.18600
C901        C  0.52122800  0.11382415  0.64448918    -0.09300
C902        C  0.54424666  0.12199229  0.63794515    -0.02300
H903        H  0.49572325  0.16805299  0.65809582     0.05100
C904        C  0.48019652  0.12282589  0.66168208     0.20600
H905        H  0.55776648  0.10894214  0.63261478     0.10300
C906        C  0.46130036  0.11796058  0.64567847    -0.15600
C907        C  0.43793415  0.11365695  0.65424182     0.03300
C908        C  0.43327370  0.11423617  0.67933623    -0.11000
C909        C  0.45257967  0.11825916  0.69528709    -0.01000
C910        C  0.47583083  0.12268042  0.68664956    -0.06100
H911        H  0.46465986  0.11805402  0.62642470     0.06300
H912        H  0.44947630  0.11874479  0.71457383     0.09700
Br913      Br  0.51458591  0.07982013  0.64353267    -0.05900
Br914      Br  0.53759145  0.19766055  0.64846250    -0.02800
Br915      Br  0.41362399  0.10658886  0.63064624     0.00100
Br916      Br  0.50101893  0.12914669  0.70953249    -0.04300
C917        C  0.66117873  0.11480953  0.44410899    -0.11700
C918        C  0.65397544  0.13817969  0.45098353     0.03800
C919        C  0.64569225  0.14219198  0.47439831    -0.12300
C920        C  0.64454015  0.12318463  0.49110765     0.18600
C921        C  0.65085002  0.09963609  0.48394947    -0.09300
C922        C  0.65938866  0.09565553  0.46059910    -0.02300
H923        H  0.64098710  0.16036787  0.47988315     0.05100
C924        C  0.63824123  0.12876725  0.51625302     0.20600
H925        H  0.66480470  0.07761600  0.45533131     0.10300
C926        C  0.61475722  0.13636532  0.52174566    -0.15600
C927        C  0.60882418  0.14370593  0.54511190     0.03300
C928        C  0.62650621  0.14311316  0.56332501    -0.11000
C929        C  0.64984615  0.13510537  0.55789505    -0.01000
C930        C  0.65594590  0.12839876  0.53445798    -0.06100
H931        H  0.60115416  0.13694528  0.50772231     0.06300
H932        H  0.66370074  0.13520444  0.57169402     0.09700
Br933      Br  0.64818138  0.07252393  0.50544135    -0.05900
Br934      Br  0.65731486  0.16555628  0.42988225    -0.02800
Br935      Br  0.57638282  0.15396509  0.55137986     0.00100
Br936      Br  0.68911629  0.12097725  0.52779117    -0.04300
C937        C  0.37588819  0.70275925  0.20767603    -0.11700
C938        C  0.39611950  0.71573945  0.21616868     0.03800
C939        C  0.39602103  0.72524629  0.23950410    -0.12300
C940        C  0.37607572  0.72193081  0.25465410     0.18600
C941        C  0.35607741  0.70858904  0.24645165    -0.09300
C942        C  0.35615790  0.69897353  0.22314120    -0.02300
H943        H  0.41155107  0.73530839  0.24587701     0.05100
C944        C  0.37618641  0.73322073  0.27868351     0.20600
H945        H  0.34049431  0.68906516  0.21685497     0.10300
C946        C  0.36907272  0.75733774  0.28084896    -0.15600
C947        C  0.36879393  0.76881855  0.30329316     0.03300
C948        C  0.37581332  0.75589851  0.32432087    -0.11000
C949        C  0.38327695  0.73168434  0.32177017    -0.01000
C950        C  0.38352595  0.72039574  0.29924949    -0.06100
H951        H  0.36358636  0.76727201  0.26490462     0.06300
H952        H  0.38883979  0.72128261  0.33736552     0.09700
Br953      Br  0.32811415  0.70370206  0.26628240    -0.05900
Br954      Br  0.42483933  0.71997639  0.19725623    -0.02800
Br955      Br  0.35849479  0.80198350  0.30309949     0.00100
Br956      Br  0.39403188  0.68744735  0.29730953    -0.04300
C957        C  0.30564655  0.70610117  0.13352962    -0.11700
C958        C  0.28667989  0.69988117  0.14942938     0.03800
C959        C  0.26429657  0.71113844  0.14703211    -0.12300
C960        C  0.26045848  0.72854742  0.12910126     0.18600
C961        C  0.27911352  0.73457583  0.11306435    -0.09300
C962        C  0.30152024  0.72336501  0.11535041    -0.02300
H963        H  0.24995455  0.70676165  0.15960307     0.05100
C964        C  0.23730265  0.74131048  0.12857516     0.20600
H965        H  0.31580172  0.72822942  0.10289351     0.10300
C966        C  0.23545924  0.76346268  0.14045788    -0.15600
C967        C  0.21331234  0.77525533  0.14239516     0.03300
C968        C  0.19231802  0.76463220  0.13217421    -0.11000
C969        C  0.19465037  0.74266823  0.11955951    -0.01000
C970        C  0.21687210  0.73100472  0.11779700    -0.06100
H971        H  0.25132301  0.77133980  0.14878321     0.06300
H972        H  0.17906710  0.73417805  0.11135131     0.09700
Br973      Br  0.27472095  0.75807827  0.08797272    -0.05900
Br974      Br  0.29047497  0.67780832  0.17595921    -0.02800
Br975      Br  0.21375471  0.80515505  0.16003988     0.00100
Br976      Br  0.21856059  0.70086127  0.10086236    -0.04300
C977        C  0.76794438  0.17305066  0.12372431    -0.11700
C978        C  0.74919878  0.17750615  0.10694765     0.03800
C979        C  0.73782537  0.19997203  0.10658470    -0.12300
C980        C  0.74515782  0.21844739  0.12215836     0.18600
C981        C  0.76432085  0.21435835  0.13831410    -0.09300
C982        C  0.77548844  0.19179722  0.13902001    -0.02300
H983        H  0.72316848  0.20309157  0.09402898     0.05100
C984        C  0.73218068  0.24164002  0.12180245     0.20600
H985        H  0.78990835  0.18883176  0.15187340     0.10300
C986        C  0.71959004  0.24876986  0.14249743    -0.15600
C987        C  0.70810000  0.27112833  0.14345202     0.03300
C988        C  0.70869571  0.28655142  0.12317205    -0.11000
C989        C  0.72083804  0.27917579  0.10225594    -0.01000
C990        C  0.73246841  0.25683340  0.10139062    -0.06100
H991        H  0.71925512  0.23710548  0.15822363     0.06300
H992        H  0.72142730  0.29091941  0.08659797     0.09700
Br993      Br  0.77621994  0.23911286  0.15945819    -0.05900
Br994      Br  0.73889235  0.15449349  0.08311221    -0.02800
Br995      Br  0.69398091  0.28039263  0.17367790     0.00100
Br996      Br  0.74936606  0.24844802  0.07238220    -0.04300
C997        C  0.77075249  0.36396803  0.30562672    -0.11700
C998        C  0.75023373  0.37819666  0.29999078     0.03800
C999        C  0.74048468  0.37753770  0.27674247    -0.12300
C1000       C  0.75073241  0.36309737  0.25881732     0.18600
C1001       C  0.77157124  0.34968394  0.26393811    -0.09300
C1002       C  0.78140202  0.35018731  0.28713215    -0.02300
H1003       H  0.72452905  0.38807864  0.27268576     0.05100
C1004       C  0.73868303  0.36147815  0.23522233     0.20600
H1005       H  0.79715244  0.33922266  0.29077547     0.10300
C1006       C  0.74284644  0.37940651  0.21784381    -0.15600
C1007       C  0.73094082  0.37875017  0.19559646     0.03300
C1008       C  0.71444463  0.35987244  0.19062002    -0.11000
C1009       C  0.71016350  0.34214787  0.20829397    -0.01000
C1010       C  0.72221293  0.34276426  0.23038504    -0.06100
H1011       H  0.75523577  0.39407217  0.22171753     0.06300
H1012       H  0.69757626  0.32756245  0.20483719     0.09700
Br1013     Br  0.78684370  0.33008733  0.23988962    -0.05900
Br1014     Br  0.73445334  0.39924808  0.32252943    -0.02800
Br1015     Br  0.73683394  0.40498091  0.17360794     0.00100
Br1016     Br  0.71549855  0.31782236  0.25355390    -0.04300
C1017       C  0.69588951  0.60159284  0.21573224    -0.11700
C1018       C  0.71628107  0.61086555  0.20322128     0.03800
C1019       C  0.73920919  0.60879438  0.21345929    -0.12300
C1020       C  0.74239980  0.59764134  0.23587192     0.18600
C1021       C  0.72243918  0.58796370  0.24811947    -0.09300
C1022       C  0.69949217  0.58991923  0.23804081    -0.02300
H1023       H  0.75464835  0.61640975  0.20412679     0.05100
C1024       C  0.76641088  0.59790373  0.24705776     0.20600
H1025       H  0.68438508  0.58241855  0.24795482     0.10300
C1026       C  0.77055151  0.61367019  0.26630100    -0.15600
C1027       C  0.79309615  0.61488261  0.27738553     0.03300
C1028       C  0.81195361  0.59966384  0.26938227    -0.11000
C1029       C  0.80774529  0.58415293  0.24973882    -0.01000
C1030       C  0.78522116  0.58330454  0.23848630    -0.06100
H1031       H  0.75618631  0.62538717  0.27247874     0.06300
H1032       H  0.82198041  0.57253395  0.24313073     0.09700
Br1033     Br  0.72571186  0.57193611  0.27868157    -0.05900
Br1034     Br  0.71486218  0.62726054  0.17263173    -0.02800
Br1035     Br  0.79692898  0.63902576  0.30198439     0.00100
Br1036     Br  0.78082484  0.56179425  0.21174035    -0.04300
C1037       C  0.62413396  0.67455401  0.22145267    -0.11700
C1038       C  0.62719356  0.69643181  0.20841921     0.03800
C1039       C  0.62609196  0.71853726  0.22054840    -0.12300
C1040       C  0.62175205  0.71946159  0.24540368     0.18600
C1041       C  0.61799301  0.69790071  0.25829672    -0.09300
C1042       C  0.61944916  0.67578865  0.24639798    -0.02300
H1043       H  0.62854992  0.73518899  0.21050472     0.05100
C1044       C  0.62050710  0.74316243  0.25737987     0.20600
H1045       H  0.61671127  0.65946150  0.25686366     0.10300
C1046       C  0.60164699  0.75894153  0.25148753    -0.15600
C1047       C  0.59978625  0.78157897  0.26249169     0.03300
C1048       C  0.61701171  0.78858287  0.27993766    -0.11000
C1049       C  0.63594791  0.77268861  0.28562273    -0.01000
C1050       C  0.63799844  0.75032740  0.27429334    -0.06100
H1051       H  0.58822284  0.75352369  0.23834352     0.06300
H1052       H  0.64969220  0.77793250  0.29849558     0.09700
Br1053     Br  0.60973345  0.69769089  0.29194491    -0.05900
Br1054     Br  0.63203011  0.69812079  0.17412641    -0.02800
Br1055     Br  0.57284148  0.80139348  0.25347128     0.00100
Br1056     Br  0.66569728  0.73084450  0.28160696    -0.04300
C1057       C  0.55949723  0.61651861  0.16831133    -0.11700
C1058       C  0.55341168  0.63109344  0.14813489     0.03800
C1059       C  0.52922003  0.63579641  0.14305811    -0.12300
C1060       C  0.51086488  0.62667462  0.15782019     0.18600
C1061       C  0.51664293  0.61133393  0.17714342    -0.09300
C1062       C  0.54076019  0.60625931  0.18215239    -0.02300
H1063       H  0.52468220  0.64758734  0.12810048     0.05100
C1064       C  0.48609155  0.63524185  0.15406893     0.20600
H1065       H  0.54481028  0.59485554  0.19752312     0.10300
C1066       C  0.46846066  0.61934632  0.14528819    -0.15600
C1067       C  0.44479843  0.62723762  0.14163181     0.03300
C1068       C  0.43872256  0.65145370  0.14670302    -0.11000
C1069       C  0.45654781  0.66732692  0.15519509    -0.01000
C1070       C  0.48003288  0.65938202  0.15906785    -0.06100
H1071       H  0.47318536  0.60081839  0.14116685     0.06300
H1072       H  0.45208939  0.68592276  0.15929621     0.09700
Br1073     Br  0.49237481  0.59843478  0.19828703    -0.05900
Br1074     Br  0.57651953  0.64685599  0.12750722    -0.02800
Br1075     Br  0.42209809  0.60461995  0.12836104     0.00100
Br1076     Br  0.50296050  0.68195371  0.17207248    -0.04300
C1077       C  0.65438492  0.41955002  0.13562890    -0.11700
C1078       C  0.64783295  0.42726639  0.15890622     0.03800
C1079       C  0.64157491  0.45134505  0.16267147    -0.12300
C1080       C  0.64122904  0.46788659  0.14346999     0.18600
C1081       C  0.64715724  0.45998962  0.12006386    -0.09300
C1082       C  0.65392555  0.43598340  0.11636302    -0.02300
H1083       H  0.63767463  0.45738103  0.18083455     0.05100
C1084       C  0.63693992  0.49361743  0.14882360     0.20600
H1085       H  0.65889081  0.43011953  0.09840411     0.10300
C1086       C  0.65545320  0.51033287  0.14418432    -0.15600
C1087       C  0.65325897  0.53442092  0.15120788     0.03300
C1088       C  0.63236837  0.54196553  0.16352084    -0.11000
C1089       C  0.61374074  0.52533531  0.16794860    -0.01000
C1090       C  0.61578155  0.50134224  0.16055157    -0.06100
H1091       H  0.67205398  0.50441534  0.13575901     0.06300
H1092       H  0.59757377  0.53101792  0.17733224     0.09700
Br1093     Br  0.64606764  0.48115867  0.09261112    -0.05900
Br1094     Br  0.64927482  0.40636349  0.18658696    -0.02800
Br1095     Br  0.68029364  0.55547017  0.14552491     0.00100
Br1096     Br  0.58916532  0.47995493  0.16681774    -0.04300
C1097       C  0.28971084  0.35809107  0.79224942    -0.11700
C1098       C  0.26905905  0.34894362  0.80442819     0.03800
C1099       C  0.24668436  0.34867801  0.79270113    -0.12300
C1100       C  0.24434492  0.35746546  0.76914437     0.18600
C1101       C  0.26441248  0.36752248  0.75741393    -0.09300
C1102       C  0.28678242  0.36770021  0.76887349    -0.02300
H1103       H  0.23105976  0.34124940  0.80186461     0.05100
C1104       C  0.22095367  0.35571357  0.75675163     0.20600
H1105       H  0.30200776  0.37523704  0.75917352     0.10300
C1106       C  0.20321687  0.37301969  0.76142517    -0.15600
C1107       C  0.18138887  0.37277310  0.74880926     0.03300
C1108       C  0.17710606  0.35481424  0.73118242    -0.11000
C1109       C  0.19494677  0.33739362  0.72673345    -0.01000
C1110       C  0.21668137  0.33765384  0.73946902    -0.06100
H1111       H  0.20661360  0.38709026  0.77456771     0.06300
H1112       H  0.19187340  0.32333177  0.71350760     0.09700
Br1113     Br  0.26204583  0.38119792  0.72565269    -0.05900
Br1114     Br  0.26946783  0.33629074  0.83674536    -0.02800
Br1115     Br  0.15909233  0.39845243  0.75543657     0.00100
Br1116     Br  0.24001617  0.31295643  0.73288576    -0.04300
C1117       C  0.36608674  0.28873987  0.79227149    -0.11700
C1118       C  0.38286217  0.28379395  0.77365144     0.03800
C1119       C  0.38417359  0.26058519  0.76387594    -0.12300
C1120       C  0.36929430  0.24201674  0.77244463     0.18600
C1121       C  0.35358251  0.24644678  0.79182802    -0.09300
C1122       C  0.35201044  0.26967543  0.80152686    -0.02300
H1123       H  0.39667481  0.25704592  0.74928170     0.05100
C1124       C  0.36983265  0.21838742  0.76032023     0.20600
H1125       H  0.33935705  0.27290155  0.81605083     0.10300
C1126       C  0.38958118  0.20300986  0.76384031    -0.15600
C1127       C  0.39046232  0.18043761  0.75255631     0.03300
C1128       C  0.37126896  0.17307208  0.73751178    -0.11000
C1129       C  0.35193294  0.18889947  0.73343992    -0.01000
C1130       C  0.35112419  0.21142102  0.74465818    -0.06100
H1131       H  0.40433343  0.20861551  0.77538436     0.06300
H1132       H  0.33715891  0.18357324  0.72178833     0.09700
Br1133     Br  0.33399331  0.22127953  0.80553999    -0.05900
Br1134     Br  0.40531324  0.30728348  0.76128228    -0.02800
Br1135     Br  0.41889812  0.16119688  0.75714289     0.00100
Br1136     Br  0.32435478  0.23226606  0.73772573    -0.04300
C1137       C  0.21153443  0.79205451  0.90153215    -0.11700
C1138       C  0.22897987  0.78571278  0.91908970     0.03800
C1139       C  0.23786242  0.76211290  0.91995575    -0.12300
C1140       C  0.22935979  0.74455177  0.90394960     0.18600
C1141       C  0.21081034  0.75028096  0.88768537    -0.09300
C1142       C  0.20210831  0.77389655  0.88649233    -0.02300
H1143       H  0.25179315  0.75751963  0.93288035     0.05100
C1144       C  0.24118057  0.72082654  0.90330840     0.20600
H1145       H  0.18840032  0.77816828  0.87323415     0.10300
C1146       C  0.23425946  0.70286448  0.91969867    -0.15600
C1147       C  0.24491815  0.67998500  0.91904817     0.03300
C1148       C  0.26283670  0.67487317  0.90155237    -0.11000
C1149       C  0.27008226  0.69331266  0.88561510    -0.01000
C1150       C  0.25943647  0.71611286  0.88641445    -0.06100
H1151       H  0.22046602  0.70667076  0.93300097     0.06300
H1152       H  0.28378057  0.68990371  0.87211510     0.09700
Br1153     Br  0.19731961  0.72649503  0.86643446    -0.05900
Br1154     Br  0.24092053  0.80782268  0.94299212    -0.02800
Br1155     Br  0.23475798  0.65724659  0.94327612     0.00100
Br1156     Br  0.27028546  0.74035472  0.86406001    -0.04300
C1157       C  0.25916629  0.60464264  0.82782420    -0.11700
C1158       C  0.26429753  0.62122920  0.80902784     0.03800
C1159       C  0.25306098  0.61861456  0.78664782    -0.12300
C1160       C  0.23666168  0.59982217  0.78250843     0.18600
C1161       C  0.23138291  0.58332985  0.80106767    -0.09300
C1162       C  0.24252995  0.58587441  0.82356580    -0.02300
H1163       H  0.25694371  0.63148505  0.77239346     0.05100
C1164       C  0.22504668  0.59824272  0.75869505     0.20600
H1165       H  0.23839259  0.57293616  0.83767329     0.10300
C1166       C  0.23503836  0.58325705  0.74104817    -0.15600
C1167       C  0.22607511  0.58336656  0.71745981     0.03300
C1168       C  0.20692671  0.59911313  0.71118913    -0.11000
C1169       C  0.19636652  0.61331139  0.72936088    -0.01000
C1170       C  0.20526010  0.61293965  0.75291580    -0.06100
H1171       H  0.25012716  0.57168941  0.74559051     0.06300
H1172       H  0.18153252  0.62531471  0.72515669     0.09700
Br1173     Br  0.20894951  0.55731522  0.79642005    -0.05900
Br1174     Br  0.28524344  0.64870536  0.81280549    -0.02800
Br1175     Br  0.24048226  0.56099981  0.69526929     0.00100
Br1176     Br  0.19019579  0.63311526  0.77661357    -0.04300
C1177       C  0.32414977  0.61523942  0.95727489    -0.11700
C1178       C  0.34946359  0.61742060  0.96021581     0.03800
C1179       C  0.35904129  0.62357736  0.98275861    -0.12300
C1180       C  0.34387824  0.62725319  0.00257918     0.18600
C1181       C  0.31886581  0.62394987  0.00003357    -0.09300
C1182       C  0.30920505  0.61796355  0.97757007    -0.02300
H1183       H  0.37836246  0.62580776  0.98478420     0.05100
C1184       C  0.35399116  0.63607051  0.02549688     0.20600
H1185       H  0.28980015  0.61633936  0.97583684     0.10300
C1186       C  0.35516391  0.66102907  0.02937250    -0.15600
C1187       C  0.36106056  0.67031189  0.05204891     0.03300
C1188       C  0.36596129  0.65430984  0.07139415    -0.11000
C1189       C  0.36591429  0.62926430  0.06699693    -0.01000
C1190       C  0.36003532  0.62011541  0.04425280    -0.06100
H1191       H  0.35037151  0.67333988  0.01492463     0.06300
H1192       H  0.36988225  0.61669085  0.08146248     0.09700
Br1193     Br  0.29716963  0.62841690  0.02662904    -0.05900
Br1194     Br  0.37208687  0.61160621  0.93463277    -0.02800
Br1195     Br  0.35957680  0.70483160  0.05554531     0.00100
Br1196     Br  0.35936397  0.58576459  0.03978520    -0.04300
C1197       C  0.34901874  0.42314737  0.84481914    -0.11700
C1198       C  0.34604768  0.42868907  0.86956923     0.03800
C1199       C  0.34100549  0.45243289  0.87651092    -0.12300
C1200       C  0.33904726  0.47088220  0.85931040     0.18600
C1201       C  0.34281070  0.46568209  0.83484583    -0.09300
C1202       C  0.34775264  0.44203239  0.82779437    -0.02300
H1203       H  0.33831823  0.45652353  0.89542514     0.05100
C1204       C  0.33178187  0.49520203  0.86704337     0.20600
H1205       H  0.34996142  0.43837082  0.80873968     0.10300
C1206       C  0.34908176  0.51361820  0.86860915    -0.15600
C1207       C  0.34245917  0.53709033  0.87519596     0.03300
C1208       C  0.31799413  0.54232154  0.88029053    -0.11000
C1209       C  0.30088181  0.52352793  0.87904969    -0.01000
C1210       C  0.30757207  0.50020443  0.87244078    -0.06100
H1211       H  0.36780018  0.50969250  0.86460418     0.06300
H1212       H  0.28199920  0.52705107  0.88261430     0.09700
Br1213     Br  0.34021988  0.49009053  0.81033428    -0.05900
Br1214     Br  0.34921611  0.40528472  0.89501412    -0.02800
Br1215     Br  0.36790732  0.56058485  0.87760474     0.00100
Br1216     Br  0.28285912  0.47595369  0.87000972    -0.04300
C1217       C  0.67563225  0.25223137  0.88629622    -0.11700
C1218       C  0.68296920  0.23431658  0.90299245     0.03800
C1219       C  0.70675683  0.22576253  0.90252747    -0.12300
C1220       C  0.72339753  0.23468564  0.88564069     0.18600
C1221       C  0.71621676  0.25267545  0.86926035    -0.09300
C1222       C  0.69266122  0.26139503  0.86982334    -0.02300
H1223       H  0.71225198  0.21190296  0.91521029     0.05100
C1224       C  0.74782892  0.22425413  0.88435420     0.20600
H1225       H  0.68755730  0.27515523  0.85688690     0.10300
C1226       C  0.75351690  0.20925604  0.86487845    -0.15600
C1227       C  0.77667368  0.19976852  0.86223174     0.03300
C1228       C  0.79463079  0.20500462  0.87956632    -0.11000
C1229       C  0.78891618  0.22023116  0.89900459    -0.01000
C1230       C  0.76568832  0.22981512  0.90150619    -0.06100
H1231       H  0.73991702  0.20527174  0.85140542     0.06300
H1232       H  0.80246299  0.22446904  0.91244221     0.09700
Br1233     Br  0.73795764  0.26588653  0.84569450    -0.05900
Br1234     Br  0.66195539  0.22140790  0.92738707    -0.02800
Br1235     Br  0.78288391  0.18129926  0.83359339     0.00100
Br1236     Br  0.75927734  0.25091093  0.92814156    -0.04300
C1237       C  0.60686506  0.24878713  0.81353161    -0.11700
C1238       C  0.62769568  0.24978994  0.79900224     0.03800
C1239       C  0.62724545  0.24000664  0.77584923    -0.12300
C1240       C  0.60611520  0.22965219  0.76655655     0.18600
C1241       C  0.58522174  0.22867344  0.78102670    -0.09300
C1242       C  0.58582067  0.23796117  0.80448808    -0.02300
H1243       H  0.64350531  0.24044184  0.76499991     0.05100
C1244       C  0.60670188  0.21934694  0.74201912     0.20600
H1245       H  0.56965299  0.23732381  0.81545254     0.10300
C1246       C  0.60389036  0.19435080  0.73909080    -0.15600
C1247       C  0.60586351  0.18371505  0.71633408     0.03300
C1248       C  0.61111566  0.19825071  0.69597017    -0.11000
C1249       C  0.61350642  0.22334787  0.69895893    -0.01000
C1250       C  0.61139759  0.23392092  0.72170383    -0.06100
H1251       H  0.60026674  0.18303214  0.75465606     0.06300
H1252       H  0.61734168  0.23482553  0.68356557     0.09700
Br1253     Br  0.55524262  0.21602484  0.76911040    -0.05900
Br1254     Br  0.65758700  0.26327821  0.81021758    -0.02800
Br1255     Br  0.59987206  0.14955106  0.71438916     0.00100
Br1256     Br  0.61466023  0.26838860  0.72399980    -0.04300
C1257       C  0.61107067  0.30698821  0.94623398    -0.11700
C1258       C  0.61758009  0.33147515  0.95037635     0.03800
C1259       C  0.62193332  0.33943256  0.97387889    -0.12300
C1260       C  0.61989446  0.32361883  0.99348712     0.18600
C1261       C  0.61175775  0.29987802  0.98972698    -0.09300
C1262       C  0.60736875  0.29176207  0.96629590    -0.02300
H1263       H  0.62800063  0.35782814  0.97682298     0.05100
C1264       C  0.62947761  0.33113877  0.01707817     0.20600
H1265       H  0.60206562  0.27308329  0.96380054     0.10300
C1266       C  0.61377533  0.33612909  0.03623539    -0.15600
C1267       C  0.62282990  0.34196717  0.05910164     0.03300
C1268       C  0.64806569  0.34290505  0.06287896    -0.11000
C1269       C  0.66357868  0.33847247  0.04334544    -0.01000
C1270       C  0.65452927  0.33252999  0.02069986    -0.06100
H1271       H  0.59445001  0.33525354  0.03341482     0.06300
H1272       H  0.68296716  0.33887130  0.04581491     0.09700
Br1273     Br  0.60831297  0.27735463  0.01587505    -0.05900
Br1274     Br  0.62158071  0.35528639  0.92535236    -0.02800
Br1275     Br  0.59980303  0.34919320  0.08391315     0.00100
Br1276     Br  0.67719571  0.32515260  0.99557270    -0.04300
C1277       C  0.54111195  0.30348104  0.87051964    -0.11700
C1278       C  0.52229622  0.28914957  0.86106645     0.03800
C1279       C  0.49978063  0.29953287  0.85671149    -0.12300
C1280       C  0.49572122  0.32402306  0.86160011     0.18600
C1281       C  0.51429062  0.33824737  0.87136448    -0.09300
C1282       C  0.53685410  0.32795316  0.87565503    -0.02300
H1283       H  0.48550444  0.28862503  0.84894421     0.05100
C1284       C  0.47224993  0.33450772  0.85528608     0.20600
H1285       H  0.55118733  0.33914359  0.88289639     0.10300
C1286       C  0.45502535  0.33819442  0.87335368    -0.15600
C1287       C  0.43169775  0.34577104  0.86748770     0.03300
C1288       C  0.42535857  0.34940344  0.84302008    -0.11000
C1289       C  0.44325770  0.34700799  0.82519955    -0.01000
C1290       C  0.46651411  0.33962730  0.83116511    -0.06100
H1291       H  0.45963934  0.33470471  0.89202972     0.06300
H1292       H  0.43897145  0.34988441  0.80634896     0.09700
Br1293     Br  0.50983474  0.37191459  0.87816357    -0.05900
Br1294     Br  0.52676198  0.25604166  0.85177193    -0.02800
Br1295     Br  0.40982964  0.35119325  0.89379583     0.00100
Br1296     Br  0.48975361  0.33622076  0.80573490    -0.04300
loop_ 
_geom_bond_atom_site_label_1 
_geom_bond_atom_site_label_2 
_geom_bond_distance 
_geom_bond_site_symmetry_2 
_ccdc_geom_bond_type 
O1           Ni9   1.922       .  S
O1           C11   1.282       .  A
O2           Ni9   1.914       .  S
O2           C12   1.280       .  A
O3           Ni9   1.919       .  S
O3           C13   1.281       .  A
O4           Ni9   1.920       .  S
O4           C14   1.283       .  A
O5          Ni10   1.906       .  S
O5           C14   1.278       .  A
O6          Ni10   1.909       .  S
O6           C13   1.279       .  A
O7          Ni10   1.907       .  S
O7           C12   1.279       .  A
O8          Ni10   1.907       .  S
O8           C11   1.280       .  A
Ni9         Ni10   2.387       .  S
C11        C1217   1.482       .  S
C12        C1277   1.469       .  S
C13        C1237   1.469       .  S
C14        C1257   1.486       .  S
O15         Ni23   1.909       .  S
O15          C25   1.278       .  A
O16         Ni23   1.907       .  S
O16          C26   1.280       .  A
O17         Ni23   1.920       .  S
O17          C27   1.283       .  A
O18         Ni23   1.920       .  S
O18          C28   1.282       .  A
O19         Ni24   1.909       .  S
O19          C28   1.279       .  A
O20         Ni24   1.910       .  S
O20          C27   1.279       .  A
O21         Ni24   1.917       .  S
O21          C26   1.280       .  A
O22         Ni24   1.917       .  S
O22          C25   1.283       .  A
Ni23        Ni24   2.385       .  S
C25        C1148   1.480       .  S
C26        C1208   1.481       .  S
C27        C1177   1.482       .  S
C28        C1157   1.479       .  S
O29         Ni37   1.918       .  S
O29          C39   1.282       .  A
O30         Ni37   1.917       .  S
O30          C40   1.281       .  A
O31         Ni37   1.915       .  S
O31          C41   1.279       .  A
O32         Ni37   1.912       .  S
O32          C42   1.280       .  A
O33         Ni38   1.907       .  S
O33          C42   1.280       .  A
O34         Ni38   1.910       .  S
O34          C41   1.281       .  A
O35         Ni38   1.907       .  S
O35          C40   1.280       .  A
O36         Ni38   1.909       .  S
O36          C39   1.279       .  A
Ni37        Ni38   2.383       .  S
C39        C1117   1.480       .  S
C40        C1197   1.482       .  S
C41        C1097   1.487       .  S
C42        C1288   1.478       .  S
O43         Ni51   1.907       .  S
O43          C53   1.280       .  A
O44         Ni51   1.905       .  S
O44          C54   1.279       .  A
O45         Ni51   1.912       .  S
O45          C55   1.282       .  A
O46         Ni51   1.909       .  S
O46          C56   1.281       .  A
O47         Ni52   1.908       .  S
O47          C56   1.278       .  A
O48         Ni52   1.906       .  S
O48          C55   1.277       .  A
O49         Ni52   1.912       .  S
O49          C54   1.280       .  A
O50         Ni52   1.916       .  S
O50          C53   1.280       .  A
Ni51        Ni52   2.384       .  S
C53        C1037   1.485       .  S
C54        C1088   1.466       .  S
C55        C1017   1.483       .  S
C56        C1057   1.482       .  S
O57         Ni65   1.916       .  S
O57          C67   1.282       .  A
O58         Ni65   1.919       .  S
O58          C68   1.281       .  A
O59         Ni65   1.907       .  S
O59          C69   1.279       .  A
O60         Ni65   1.908       .  S
O60          C70   1.279       .  A
O61         Ni66   1.910       .  S
O61          C70   1.280       .  A
O62         Ni66   1.912       .  S
O62          C69   1.280       .  A
O63         Ni66   1.907       .  S
O63          C68   1.280       .  A
O64         Ni66   1.912       .  S
O64          C67   1.280       .  A
Ni65        Ni66   2.390       .  S
C67        C1008   1.476       .  S
C68        C1268   1.479       .  S
C69         C988   1.467       .  S
C70        C1077   1.464       .  S
O71         Ni79   1.911       .  S
O71          C81   1.280       .  A
O72         Ni79   1.912       .  S
O72          C82   1.280       .  A
O73         Ni79   1.918       .  S
O73          C83   1.281       .  A
O74         Ni79   1.915       .  S
O74          C84   1.282       .  A
O75         Ni80   1.914       .  S
O75          C84   1.280       .  A
O76         Ni80   1.914       .  S
O76          C83   1.281       .  A
O77         Ni80   1.905       .  S
O77          C82   1.279       .  A
O78         Ni80   1.908       .  S
O78          C81   1.280       .  A
Ni79        Ni80   2.389       .  S
C81         C957   1.473       .  S
C82        C1068   1.468       .  S
C83         C937   1.474       .  S
C84        C1188   1.480       .  S
O85         Ni93   1.915       .  S
O85          C95   1.282       .  A
O86         Ni93   1.911       .  S
O86          C96   1.280       .  A
O87         Ni93   1.903       .  S
O87          C97   1.278       .  A
O88         Ni93   1.907       .  S
O88          C98   1.279       .  A
O89         Ni94   1.920       .  S
O89          C98   1.282       .  A
O90         Ni94   1.921       .  S
O90          C97   1.283       .  A
O91         Ni94   1.910       .  S
O91          C96   1.279       .  A
O92         Ni94   1.912       .  S
O92          C95   1.280       .  A
Ni93        Ni94   2.389       .  S
C95        C1248   1.478       .  S
C96         C928   1.465       .  S
C97         C897   1.476       .  S
C98         C877   1.476       .  S
O99        Ni107   1.915       .  S
O99         C109   1.281       .  A
O100       Ni107   1.912       .  S
O100        C110   1.279       .  A
O101       Ni107   1.912       .  S
O101        C111   1.281       .  A
O102       Ni107   1.910       .  S
O102        C112   1.280       .  A
O103       Ni108   1.917       .  S
O103        C112   1.281       .  A
O104       Ni108   1.918       .  S
O104        C111   1.281       .  A
O105       Ni108   1.910       .  S
O105        C110   1.279       .  A
O106       Ni108   1.910       .  S
O106        C109   1.279       .  A
Ni107      Ni108   2.389       .  S
C109        C848   1.465       .  S
C110        C917   1.463       .  S
C111        C828   1.488       .  S
C112        C857   1.470       .  S
O113       Ni121   1.918       .  S
O113        C123   1.280       .  A
O114       Ni121   1.914       .  S
O114        C124   1.281       .  A
O115       Ni121   1.913       .  S
O115        C125   1.280       .  A
O116       Ni121   1.908       .  S
O116        C126   1.281       .  A
O117       Ni122   1.914       .  S
O117        C126   1.280       .  A
O118       Ni122   1.912       .  S
O118        C125   1.281       .  A
O119       Ni122   1.917       .  S
O119        C124   1.281       .  A
O120       Ni122   1.918       .  S
O120        C123   1.281       .  A
Ni121      Ni122   2.389       .  S
C123        C777   1.470       .  S
C124        C908   1.480       .  S
C125       C1128   1.472       .  S
C126        C797   1.477       .  S
O127       Ni135   1.914       .  S
O127        C137   1.280       .  A
O128       Ni135   1.911       .  S
O128        C138   1.281       .  A
O129       Ni135   1.910       .  S
O129        C139   1.281       .  A
O130       Ni135   1.906       .  S
O130        C140   1.280       .  A
O131       Ni136   1.915       .  S
O131        C140   1.280       .  A
O132       Ni136   1.917       .  S
O132        C139   1.281       .  A
O133       Ni136   1.916       .  S
O133        C138   1.281       .  A
O134       Ni136   1.918       .  S
O134        C137   1.282       .  A
Ni135      Ni136   2.385       .  S
C137        C717   1.480       .  S
C138        C757   1.479       .  S
C139        C737   1.482       .  S
C140        C808   1.482       .  S
O141       Ni149   1.909       .  S
O141        C151   1.279       .  A
O142       Ni149   1.911       .  S
O142        C152   1.279       .  A
O143       Ni149   1.906       .  S
O143        C153   1.280       .  A
O144       Ni149   1.908       .  S
O144        C154   1.278       .  A
O145       Ni150   1.918       .  S
O145        C154   1.283       .  A
O146       Ni150   1.916       .  S
O146        C153   1.281       .  A
O147       Ni150   1.918       .  S
O147        C152   1.282       .  A
O148       Ni150   1.918       .  S
O148        C151   1.281       .  A
Ni149      Ni150   2.384       .  S
C151        C688   1.478       .  S
C152        C697   1.483       .  S
C153       C1048   1.477       .  S
C154        C868   1.488       .  S
O155       Ni163   1.917       .  S
O155        C165   1.282       .  A
O156       Ni163   1.914       .  S
O156        C166   1.281       .  A
O157       Ni163   1.912       .  S
O157        C167   1.280       .  A
O158       Ni163   1.915       .  S
O158        C168   1.281       .  A
O159       Ni164   1.915       .  S
O159        C168   1.281       .  A
O160       Ni164   1.916       .  S
O160        C167   1.281       .  A
O161       Ni164   1.913       .  S
O161        C166   1.280       .  A
O162       Ni164   1.913       .  S
O162        C165   1.279       .  A
Ni163      Ni164   2.386       .  S
C165        C948   1.490       .  S
C166        C768   1.474       .  S
C167        C668   1.473       .  S
C168        C708   1.477       .  S
O169       Ni177   1.906       .  S
O169        C179   1.277       .  A
O170       Ni177   1.908       .  S
O170        C180   1.278       .  A
O171       Ni177   1.915       .  S
O171        C181   1.282       .  A
O172       Ni177   1.915       .  S
O172        C182   1.280       .  A
O173       Ni178   1.908       .  S
O173        C182   1.279       .  A
O174       Ni178   1.909       .  S
O174        C181   1.279       .  A
O175       Ni178   1.913       .  S
O175        C180   1.282       .  A
O176       Ni178   1.915       .  S
O176        C179   1.282       .  A
Ni177      Ni178   2.384       .  S
C179        C968   1.485       .  S
C180        C648   1.485       .  S
C181        C597   1.479       .  S
C182        C628   1.467       .  S
O183       Ni191   1.914       .  S
O183        C193   1.280       .  A
O184       Ni191   1.910       .  S
O184        C194   1.279       .  A
O185       Ni191   1.909       .  S
O185        C195   1.279       .  A
O186       Ni191   1.908       .  S
O186        C196   1.279       .  A
O187       Ni192   1.912       .  S
O187        C196   1.281       .  A
O188       Ni192   1.912       .  S
O188        C195   1.280       .  A
O189       Ni192   1.914       .  S
O189        C194   1.281       .  A
O190       Ni192   1.911       .  S
O190        C193   1.281       .  A
Ni191      Ni192   2.388       .  S
C193        C677   1.476       .  S
C194        C637   1.477       .  S
C195        C557   1.464       .  S
C196        C577   1.477       .  S
O197       Ni205   1.915       .  S
O197        C207   1.281       .  A
O198       Ni205   1.912       .  S
O198        C208   1.280       .  A
O199       Ni205   1.912       .  S
O199        C209   1.280       .  A
O200       Ni205   1.907       .  S
O200        C210   1.279       .  A
O201       Ni206   1.912       .  S
O201        C210   1.281       .  A
O202       Ni206   1.911       .  S
O202        C209   1.281       .  A
O203       Ni206   1.910       .  S
O203        C208   1.279       .  A
O204       Ni206   1.917       .  S
O204        C207   1.281       .  A
Ni205      Ni206   2.390       .  S
C207        C728   1.479       .  S
C208        C617   1.464       .  S
C209       C1137   1.479       .  S
C210        C537   1.466       .  S
O211       Ni219   1.918       .  S
O211        C221   1.282       .  A
O212       Ni219   1.919       .  S
O212        C222   1.281       .  A
O213       Ni219   1.910       .  S
O213        C223   1.278       .  A
O214       Ni219   1.908       .  S
O214        C224   1.279       .  A
O215       Ni220   1.910       .  S
O215        C224   1.281       .  A
O216       Ni220   1.910       .  S
O216        C223   1.281       .  A
O217       Ni220   1.916       .  S
O217        C222   1.281       .  A
O218       Ni220   1.918       .  S
O218        C221   1.281       .  A
Ni219      Ni220   2.383       .  S
C221        C788   1.487       .  S
C222        C517   1.482       .  S
C223        C497   1.484       .  S
C224        C548   1.478       .  S
O225       Ni233   1.910       .  S
O225        C235   1.279       .  A
O226       Ni233   1.910       .  S
O226        C236   1.279       .  A
O227       Ni233   1.919       .  S
O227        C237   1.283       .  A
O228       Ni233   1.919       .  S
O228        C238   1.283       .  A
O229       Ni234   1.901       .  S
O229        C238   1.276       .  A
O230       Ni234   1.900       .  S
O230        C237   1.277       .  A
O231       Ni234   1.918       .  S
O231        C236   1.281       .  A
O232       Ni234   1.918       .  S
O232        C235   1.281       .  A
Ni233      Ni234   2.387       .  S
C235        C837   1.468       .  S
C236        C477   1.473       .  S
C237        C977   1.476       .  S
C238        C588   1.484       .  S
O239       Ni247   1.907       .  S
O239        C249   1.279       .  A
O240       Ni247   1.911       .  S
O240        C250   1.279       .  A
O241       Ni247   1.920       .  S
O241        C251   1.282       .  A
O242       Ni247   1.919       .  S
O242        C252   1.281       .  A
O243       Ni248   1.917       .  S
O243        C252   1.282       .  A
O244       Ni248   1.913       .  S
O244        C251   1.279       .  A
O245       Ni248   1.920       .  S
O245        C250   1.281       .  A
O246       Ni248   1.924       .  S
O246        C249   1.283       .  A
Ni247      Ni248   2.390       .  S
C249       C1228   1.478       .  S
C250        C528   1.467       .  S
C251        C488   1.469       .  S
C252        C457   1.480       .  S
O253       Ni261   1.918       .  S
O253        C263   1.281       .  A
O254       Ni261   1.914       .  S
O254        C264   1.281       .  A
O255       Ni261   1.915       .  S
O255        C265   1.282       .  A
O256       Ni261   1.920       .  S
O256        C266   1.282       .  A
O257       Ni262   1.909       .  S
O257        C266   1.279       .  A
O258       Ni262   1.913       .  S
O258        C265   1.280       .  A
O259       Ni262   1.910       .  S
O259        C264   1.279       .  A
O260       Ni262   1.912       .  S
O260        C263   1.280       .  A
Ni261      Ni262   2.388       .  S
C263        C748   1.476       .  S
C264        C437   1.471       .  S
C265       C1168   1.483       .  S
C266        C417   1.476       .  S
O267       Ni275   1.907       .  S
O267        C277   1.278       .  A
O268       Ni275   1.904       .  S
O268        C278   1.278       .  A
O269       Ni275   1.913       .  S
O269        C279   1.280       .  A
O270       Ni275   1.911       .  S
O270        C280   1.279       .  A
O271       Ni276   1.912       .  S
O271        C280   1.280       .  A
O272       Ni276   1.908       .  S
O272        C279   1.279       .  A
O273       Ni276   1.924       .  S
O273        C278   1.283       .  A
O274       Ni276   1.919       .  S
O274        C277   1.283       .  A
Ni275      Ni276   2.391       .  S
C277       C1108   1.476       .  S
C278        C408   1.471       .  S
C279        C508   1.471       .  S
C280        C448   1.463       .  S
O281       Ni289   1.915       .  S
O281        C291   1.282       .  A
O282       Ni289   1.912       .  S
O282        C292   1.279       .  A
O283       Ni289   1.909       .  S
O283        C293   1.281       .  A
O284       Ni289   1.910       .  S
O284        C294   1.280       .  A
O285       Ni290   1.918       .  S
O285        C294   1.281       .  A
O286       Ni290   1.917       .  S
O286        C293   1.280       .  A
O287       Ni290   1.913       .  S
O287        C292   1.282       .  A
O288       Ni290   1.913       .  S
O288        C291   1.279       .  A
Ni289      Ni290   2.383       .  S
C291        C657   1.486       .  S
C292        C388   1.487       .  S
C293        C428   1.481       .  S
C294        C608   1.478       .  S
O295       Ni303   1.915       .  S
O295        C305   1.282       .  A
O296       Ni303   1.913       .  S
O296        C306   1.280       .  A
O297       Ni303   1.916       .  S
O297        C307   1.280       .  A
O298       Ni303   1.910       .  S
O298        C308   1.280       .  A
O299       Ni304   1.922       .  S
O299        C308   1.282       .  A
O300       Ni304   1.919       .  S
O300        C307   1.281       .  A
O301       Ni304   1.916       .  S
O301        C306   1.280       .  A
O302       Ni304   1.911       .  S
O302        C305   1.279       .  A
Ni303      Ni304   2.388       .  S
C305        C888   1.485       .  S
C306        C397   1.470       .  S
C307        C468   1.469       .  S
C308        C357   1.479       .  S
O309       Ni317   1.909       .  S
O309        C319   1.279       .  A
O310       Ni317   1.905       .  S
O310        C320   1.280       .  A
O311       Ni317   1.911       .  S
O311        C321   1.279       .  A
O312       Ni317   1.908       .  S
O312        C322   1.279       .  A
O313       Ni318   1.912       .  S
O313        C322   1.280       .  A
O314       Ni318   1.912       .  S
O314        C321   1.280       .  A
O315       Ni318   1.915       .  S
O315        C320   1.280       .  A
O316       Ni318   1.911       .  S
O316        C319   1.281       .  A
Ni317      Ni318   2.389       .  S
C319       C1028   1.477       .  S
C320        C377   1.478       .  S
C321        C568   1.466       .  S
C322        C337   1.468       .  S
O323       Ni331   1.917       .  S
O323        C333   1.281       .  A
O324       Ni331   1.916       .  S
O324        C334   1.280       .  A
O325       Ni331   1.914       .  S
O325        C335   1.280       .  A
O326       Ni331   1.913       .  S
O326        C336   1.281       .  A
O327       Ni332   1.917       .  S
O327        C336   1.281       .  A
O328       Ni332   1.916       .  S
O328        C335   1.282       .  A
O329       Ni332   1.909       .  S
O329        C334   1.280       .  A
O330       Ni332   1.911       .  S
O330        C333   1.280       .  A
Ni331      Ni332   2.384       .  S
C333        C817   1.471       .  S
C334        C348   1.486       .  S
C335        C997   1.487       .  S
C336        C368   1.479       .  S
C337        C338   1.410       .  A
C337        C342   1.402       .  A
C338        C339   1.397       .  A
C338       Br354   1.921       .  S
C339        C340   1.401       .  A
C339        H343   1.083       .  S
C340        C344   1.470       .  S
C340        C341   1.408       .  A
C341        C342   1.394       .  A
C341       Br353   1.920       .  S
C342        H345   1.084       .  S
C344        C346   1.399       .  A
C344        C350   1.403       .  A
C346        C347   1.397       .  A
C346        H351   1.084       .  S
C347        C348   1.418       .  A
C347       Br355   1.922       .  S
C348        C349   1.410       .  A
C349        C350   1.396       .  A
C349        H352   1.083       .  S
C350       Br356   1.919       .  S
C357        C358   1.413       .  A
C357        C362   1.406       .  A
C358        C359   1.402       .  A
C358       Br374   1.919       .  S
C359        C360   1.402       .  A
C359        H363   1.083       .  S
C360        C364   1.473       .  S
C360        C361   1.404       .  A
C361        C362   1.395       .  A
C361       Br373   1.920       .  S
C362        H365   1.083       .  S
C364        C366   1.400       .  A
C364        C370   1.405       .  A
C366        C367   1.400       .  A
C366        H371   1.083       .  S
C367        C368   1.414       .  A
C367       Br375   1.921       .  S
C368        C369   1.405       .  A
C369        C370   1.396       .  A
C369        H372   1.083       .  S
C370       Br376   1.919       .  S
C377        C378   1.414       .  A
C377        C382   1.408       .  A
C378        C379   1.396       .  A
C378       Br394   1.922       .  S
C379        C380   1.401       .  A
C379        H383   1.084   1_655  S
C380        C384   1.472   1_655  S
C380        C381   1.404       .  A
C381        C382   1.395       .  A
C381       Br393   1.919       .  S
C382        H385   1.083       .  S
C384        C386   1.399       .  A
C384        C390   1.403       .  A
C386        C387   1.397       .  A
C386        H391   1.084   1_455  S
C387        C388   1.420       .  A
C387       Br395   1.923       .  S
C388        C389   1.410       .  A
C389        C390   1.396       .  A
C389        H392   1.083       .  S
C390       Br396   1.919       .  S
C397        C398   1.409       .  A
C397        C402   1.403       .  A
C398        C399   1.398       .  A
C398       Br414   1.920       .  S
C399        C400   1.405       .  A
C399        H403   1.084       .  S
C400        C404   1.480   1_655  S
C400        C401   1.408       .  A
C401        C402   1.397       .  A
C401       Br413   1.919       .  S
C402        H405   1.084       .  S
C404        C406   1.404       .  A
C404        C410   1.408       .  A
C406        C407   1.398       .  A
C406        H411   1.084       .  S
C407        C408   1.409       .  A
C407       Br415   1.920       .  S
C408        C409   1.404       .  A
C409        C410   1.398       .  A
C409        H412   1.084       .  S
C410       Br416   1.919   1_455  S
C417        C418   1.413       .  A
C417        C422   1.406       .  A
C418        C419   1.395       .  A
C418       Br434   1.922       .  S
C419        C420   1.399       .  A
C419        H423   1.084       .  S
C420        C424   1.472       .  S
C420        C421   1.405       .  A
C421        C422   1.400       .  A
C421       Br433   1.918       .  S
C422        H425   1.083       .  S
C424        C426   1.401       .  A
C424        C430   1.403       .  A
C426        C427   1.401       .  A
C426        H431   1.083       .  S
C427        C428   1.416       .  A
C427       Br435   1.921       .  S
C428        C429   1.406       .  A
C429        C430   1.393       .  A
C429        H432   1.083       .  S
C430       Br436   1.920       .  S
C437        C438   1.410       .  A
C437        C442   1.403       .  A
C438        C439   1.397       .  A
C438       Br454   1.920       .  S
C439        C440   1.401       .  A
C439        H443   1.084       .  S
C440        C444   1.473       .  S
C440        C441   1.408       .  A
C441        C442   1.396       .  A
C441       Br453   1.920       .  S
C442        H445   1.084       .  S
C444        C446   1.402       .  A
C444        C450   1.408       .  A
C446        C447   1.395       .  A
C446        H451   1.084       .  S
C447        C448   1.407       .  A
C447       Br455   1.921       .  S
C448        C449   1.401       .  A
C449        C450   1.398       .  A
C449        H452   1.084       .  S
C450       Br456   1.919       .  S
C457        C458   1.414       .  A
C457        C462   1.406       .  A
C458        C459   1.401       .  A
C458       Br474   1.920       .  S
C459        C460   1.401       .  A
C459        H463   1.083       .  S
C460        C464   1.476       .  S
C460        C461   1.405       .  A
C461        C462   1.398       .  A
C461       Br473   1.918       .  S
C462        H465   1.083       .  S
C464        C466   1.402       .  A
C464        C470   1.407       .  A
C466        C467   1.399       .  A
C466        H471   1.084       .  S
C467        C468   1.408       .  A
C467       Br475   1.920       .  S
C468        C469   1.402       .  A
C469        C470   1.400       .  A
C469        H472   1.084       .  S
C470       Br476   1.917       .  S
C477        C478   1.409       .  A
C477        C482   1.404       .  A
C478        C479   1.400       .  A
C478       Br494   1.919       .  S
C479        C480   1.403       .  A
C479        H483   1.083       .  S
C480        C484   1.476   1_554  S
C480        C481   1.407       .  A
C481        C482   1.396       .  A
C481       Br493   1.920       .  S
C482        H485   1.084       .  S
C484        C486   1.402       .  A
C484        C490   1.409       .  A
C486        C487   1.397       .  A
C486        H491   1.084       .  S
C487        C488   1.408       .  A
C487       Br495   1.920       .  S
C488        C489   1.402       .  A
C489        C490   1.400       .  A
C489        H492   1.083       .  S
C490       Br496   1.919   1_556  S
C497        C498   1.420       .  A
C497        C502   1.409       .  A
C498        C499   1.397       .  A
C498       Br514   1.922       .  S
C499        C500   1.397       .  A
C499        H503   1.084       .  S
C500        C504   1.466       .  S
C500        C501   1.402       .  A
C501        C502   1.393       .  A
C501       Br513   1.919       .  S
C502        H505   1.083       .  S
C504        C506   1.400       .  A
C504        C510   1.404       .  A
C506        C507   1.397       .  A
C506        H511   1.084       .  S
C507        C508   1.411       .  A
C507       Br515   1.920       .  S
C508        C509   1.405       .  A
C509        C510   1.395       .  A
C509        H512   1.084       .  S
C510       Br516   1.919       .  S
C517        C518   1.415       .  A
C517        C522   1.406       .  A
C518        C519   1.401       .  A
C518       Br534   1.920       .  S
C519        C520   1.403   1_455  A
C519        H523   1.084   1_455  S
C520        C524   1.480       .  S
C520        C521   1.407   1_655  A
C521        C522   1.397       .  A
C521       Br533   1.920       .  S
C522        H525   1.083       .  S
C524        C526   1.406       .  A
C524        C530   1.409       .  A
C526        C527   1.401       .  A
C526        H531   1.083       .  S
C527        C528   1.406       .  A
C527       Br535   1.917       .  S
C528        C529   1.400       .  A
C529        C530   1.396       .  A
C529        H532   1.083       .  S
C530       Br536   1.920       .  S
C537        C538   1.409       .  A
C537        C542   1.403       .  A
C538        C539   1.395       .  A
C538       Br554   1.921       .  S
C539        C540   1.402       .  A
C539        H543   1.084       .  S
C540        C544   1.472       .  S
C540        C541   1.407       .  A
C541        C542   1.396       .  A
C541       Br553   1.919       .  S
C542        H545   1.084       .  S
C544        C546   1.401       .  A
C544        C550   1.405   1_565  A
C546        C547   1.395   1_565  A
C546        H551   1.084       .  S
C547        C548   1.415       .  A
C547       Br555   1.922       .  S
C548        C549   1.407       .  A
C549        C550   1.395       .  A
C549        H552   1.083       .  S
C550       Br556   1.919       .  S
C557        C558   1.407       .  A
C557        C562   1.401       .  A
C558        C559   1.396       .  A
C558       Br574   1.920       .  S
C559        C560   1.403       .  A
C559        H563   1.084       .  S
C560        C564   1.473       .  S
C560        C561   1.408       .  A
C561        C562   1.396       .  A
C561       Br573   1.919       .  S
C562        H565   1.084       .  S
C564        C566   1.402       .  A
C564        C570   1.408       .  A
C566        C567   1.396       .  A
C566        H571   1.084       .  S
C567        C568   1.409       .  A
C567       Br575   1.921       .  S
C568        C569   1.402       .  A
C569        C570   1.397       .  A
C569        H572   1.084       .  S
C570       Br576   1.919       .  S
C577        C578   1.415       .  A
C577        C582   1.406       .  A
C578        C579   1.396       .  A
C578       Br594   1.921       .  S
C579        C580   1.398       .  A
C579        H583   1.084       .  S
C580        C584   1.468       .  S
C580        C581   1.405       .  A
C581        C582   1.395       .  A
C581       Br593   1.920       .  S
C582        H585   1.083       .  S
C584        C586   1.396       .  A
C584        C590   1.402   1_565  A
C586        C587   1.394   1_565  A
C586        H591   1.084       .  S
C587        C588   1.421       .  A
C587       Br595   1.925       .  S
C588        C589   1.409       .  A
C589        C590   1.397       .  A
C589        H592   1.083       .  S
C590       Br596   1.918       .  S
C597        C598   1.416       .  A
C597        C602   1.407       .  A
C598        C599   1.397       .  A
C598       Br614   1.922       .  S
C599        C600   1.399       .  A
C599        H603   1.084       .  S
C600        C604   1.471       .  S
C600        C601   1.405       .  A
C601        C602   1.396       .  A
C601       Br613   1.919       .  S
C602        H605   1.083       .  S
C604        C606   1.400       .  A
C604        C610   1.405       .  A
C606        C607   1.398       .  A
C606        H611   1.084       .  S
C607        C608   1.414       .  A
C607       Br615   1.919       .  S
C608        C609   1.406       .  A
C609        C610   1.396       .  A
C609        H612   1.083       .  S
C610       Br616   1.919       .  S
C617        C618   1.407       .  A
C617        C622   1.400       .  A
C618        C619   1.398       .  A
C618       Br634   1.919       .  S
C619        C620   1.404   1_556  A
C619        H623   1.083   1_556  S
C620        C624   1.474       .  S
C620        C621   1.409   1_554  A
C621        C622   1.394       .  A
C621       Br633   1.921       .  S
C622        H625   1.084       .  S
C624        C626   1.403       .  A
C624        C630   1.409       .  A
C626        C627   1.397       .  A
C626        H631   1.084       .  S
C627        C628   1.409       .  A
C627       Br635   1.920       .  S
C628        C629   1.401       .  A
C629        C630   1.396       .  A
C629        H632   1.084       .  S
C630       Br636   1.920       .  S
C637        C638   1.414       .  A
C637        C642   1.406       .  A
C638        C639   1.396       .  A
C638       Br654   1.920       .  S
C639        C640   1.399       .  A
C639        H643   1.084       .  S
C640        C644   1.470   1_655  S
C640        C641   1.405       .  A
C641        C642   1.396       .  A
C641       Br653   1.919   1_655  S
C642        H645   1.083       .  S
C644        C646   1.397       .  A
C644        C650   1.403       .  A
C646        C647   1.397       .  A
C646        H651   1.084       .  S
C647        C648   1.420       .  A
C647       Br655   1.923       .  S
C648        C649   1.409       .  A
C649        C650   1.394       .  A
C649        H652   1.083       .  S
C650       Br656   1.920   1_455  S
C657        C658   1.419       .  A
C657        C662   1.410       .  A
C658        C659   1.397       .  A
C658       Br674   1.922       .  S
C659        C660   1.398       .  A
C659        H663   1.084       .  S
C660        C664   1.471       .  S
C660        C661   1.403       .  A
C661        C662   1.397       .  A
C661       Br673   1.918       .  S
C662        H665   1.083       .  S
C664        C666   1.401       .  A
C664        C670   1.405       .  A
C666        C667   1.398       .  A
C666        H671   1.084       .  S
C667        C668   1.412       .  A
C667       Br675   1.921       .  S
C668        C669   1.405       .  A
C669        C670   1.397       .  A
C669        H672   1.083       .  S
C670       Br676   1.918       .  S
C677        C678   1.414       .  A
C677        C682   1.405       .  A
C678        C679   1.398       .  A
C678       Br694   1.921       .  S
C679        C680   1.401       .  A
C679        H683   1.084       .  S
C680        C684   1.473       .  S
C680        C681   1.406       .  A
C681        C682   1.396       .  A
C681       Br693   1.919       .  S
C682        H685   1.084       .  S
C684        C686   1.399       .  A
C684        C690   1.406       .  A
C686        C687   1.395       .  A
C686        H691   1.084       .  S
C687        C688   1.415       .  A
C687       Br695   1.923       .  S
C688        C689   1.407       .  A
C689        C690   1.399       .  A
C689        H692   1.083       .  S
C690       Br696   1.919       .  S
C697        C698   1.418       .  A
C697        C702   1.407       .  A
C698        C699   1.400       .  A
C698       Br714   1.922       .  S
C699        C700   1.399       .  A
C699        H703   1.084       .  S
C700        C704   1.472       .  S
C700        C701   1.404       .  A
C701        C702   1.396       .  A
C701       Br713   1.919       .  S
C702        H705   1.083       .  S
C704        C706   1.400       .  A
C704        C710   1.405       .  A
C706        C707   1.399       .  A
C706        H711   1.083       .  S
C707        C708   1.413       .  A
C707       Br715   1.920       .  S
C708        C709   1.405       .  A
C709        C710   1.397       .  A
C709        H712   1.083       .  S
C710       Br716   1.919       .  S
C717        C718   1.414       .  A
C717        C722   1.406       .  A
C718        C719   1.399       .  A
C718       Br734   1.921       .  S
C719        C720   1.401       .  A
C719        H723   1.084       .  S
C720        C724   1.477       .  S
C720        C721   1.406       .  A
C721        C722   1.398       .  A
C721       Br733   1.919       .  S
C722        H725   1.083       .  S
C724        C726   1.402       .  A
C724        C730   1.406       .  A
C726        C727   1.399       .  A
C726        H731   1.084       .  S
C727        C728   1.414       .  A
C727       Br735   1.921       .  S
C728        C729   1.406       .  A
C729        C730   1.398       .  A
C729        H732   1.083       .  S
C730       Br736   1.918       .  S
C737        C738   1.416       .  A
C737        C742   1.407       .  A
C738        C739   1.399       .  A
C738       Br754   1.922       .  S
C739        C740   1.400       .  A
C739        H743   1.084       .  S
C740        C744   1.473       .  S
C740        C741   1.404       .  A
C741        C742   1.396       .  A
C741       Br753   1.919       .  S
C742        H745   1.083       .  S
C744        C746   1.401       .  A
C744        C750   1.406       .  A
C746        C747   1.399       .  A
C746        H751   1.084       .  S
C747        C748   1.413       .  A
C747       Br755   1.921       .  S
C748        C749   1.405       .  A
C749        C750   1.397       .  A
C749        H752   1.083       .  S
C750       Br756   1.919       .  S
C757        C758   1.415       .  A
C757        C762   1.405       .  A
C758        C759   1.399       .  A
C758       Br774   1.921       .  S
C759        C760   1.400       .  A
C759        H763   1.084       .  S
C760        C764   1.473       .  S
C760        C761   1.406       .  A
C761        C762   1.395       .  A
C761       Br773   1.920       .  S
C762        H765   1.083       .  S
C764        C766   1.399       .  A
C764        C770   1.407       .  A
C766        C767   1.394       .  A
C766        H771   1.084       .  S
C767        C768   1.412       .  A
C767       Br775   1.921       .  S
C768        C769   1.406       .  A
C769        C770   1.400       .  A
C769        H772   1.084       .  S
C770       Br776   1.918       .  S
C777        C778   1.408       .  A
C777        C782   1.402       .  A
C778        C779   1.401       .  A
C778       Br794   1.919       .  S
C779        C780   1.403       .  A
C779        H783   1.083       .  S
C780        C784   1.476       .  S
C780        C781   1.407       .  A
C781        C782   1.398       .  A
C781       Br793   1.918       .  S
C782        H785   1.084       .  S
C784        C786   1.401       .  A
C784        C790   1.404       .  A
C786        C787   1.402       .  A
C786        H791   1.084       .  S
C787        C788   1.417       .  A
C787       Br795   1.921       .  S
C788        C789   1.408       .  A
C789        C790   1.398       .  A
C789        H792   1.083       .  S
C790       Br796   1.918       .  S
C797        C798   1.416       .  A
C797        C802   1.405       .  A
C798        C799   1.398       .  A
C798       Br814   1.919       .  S
C799        C800   1.399   1_545  A
C799        H803   1.084       .  S
C800        C804   1.468       .  S
C800        C801   1.404       .  A
C801        C802   1.392   1_565  A
C801       Br813   1.920       .  S
C802        H805   1.083       .  S
C804        C806   1.400       .  A
C804        C810   1.402       .  A
C806        C807   1.399       .  A
C806        H811   1.084       .  S
C807        C808   1.418       .  A
C807       Br815   1.922       .  S
C808        C809   1.408       .  A
C809        C810   1.392       .  A
C809        H812   1.083       .  S
C810       Br816   1.920       .  S
C817        C818   1.410       .  A
C817        C822   1.403       .  A
C818        C819   1.396       .  A
C818       Br834   1.921       .  S
C819        C820   1.401       .  A
C819        H823   1.084       .  S
C820        C824   1.475       .  S
C820        C821   1.407       .  A
C821        C822   1.399       .  A
C821       Br833   1.918       .  S
C822        H825   1.084       .  S
C824        C826   1.400       .  A
C824        C830   1.404       .  A
C826        C827   1.399       .  A
C826        H831   1.084       .  S
C827        C828   1.419       .  A
C827       Br835   1.922       .  S
C828        C829   1.410       .  A
C829        C830   1.396       .  A
C829        H832   1.083       .  S
C830       Br836   1.919       .  S
C837        C838   1.407       .  A
C837        C842   1.404       .  A
C838        C839   1.396       .  A
C838       Br854   1.920       .  S
C839        C840   1.402       .  A
C839        H843   1.084       .  S
C840        C844   1.474       .  S
C840        C841   1.408       .  A
C841        C842   1.398       .  A
C841       Br853   1.919       .  S
C842        H845   1.084       .  S
C844        C846   1.403       .  A
C844        C850   1.409       .  A
C846        C847   1.397       .  A
C846        H851   1.084       .  S
C847        C848   1.407       .  A
C847       Br855   1.920       .  S
C848        C849   1.401       .  A
C849        C850   1.397       .  A
C849        H852   1.084       .  S
C850       Br856   1.920       .  S
C857        C858   1.410       .  A
C857        C862   1.405       .  A
C858        C859   1.396   1_545  A
C858       Br874   1.921       .  S
C859        C860   1.400       .  A
C859        H863   1.084       .  S
C860        C864   1.471       .  S
C860        C861   1.405   1_565  A
C861        C862   1.398       .  A
C861       Br873   1.918       .  S
C862        H865   1.084       .  S
C864        C866   1.397       .  A
C864        C870   1.404       .  A
C866        C867   1.398       .  A
C866        H871   1.084       .  S
C867        C868   1.421       .  A
C867       Br875   1.923       .  S
C868        C869   1.409       .  A
C869        C870   1.396       .  A
C869        H872   1.083       .  S
C870       Br876   1.919       .  S
C877        C878   1.414       .  A
C877        C882   1.405       .  A
C878        C879   1.395       .  A
C878       Br894   1.922       .  S
C879        C880   1.399       .  A
C879        H883   1.084       .  S
C880        C884   1.474       .  S
C880        C881   1.408       .  A
C881        C882   1.399       .  A
C881       Br893   1.920       .  S
C882        H885   1.083       .  S
C884        C886   1.399       .  A
C884        C890   1.404       .  A
C886        C887   1.397       .  A
C886        H891   1.084       .  S
C887        C888   1.418       .  A
C887       Br895   1.923       .  S
C888        C889   1.409       .  A
C889        C890   1.397       .  A
C889        H892   1.083       .  S
C890       Br896   1.919       .  S
C897        C898   1.416       .  A
C897        C902   1.406       .  A
C898        C899   1.393       .  A
C898       Br914   1.923       .  S
C899        C900   1.398       .  A
C899        H903   1.084       .  S
C900        C904   1.471       .  S
C900        C901   1.405       .  A
C901        C902   1.400       .  A
C901       Br913   1.917       .  S
C902        H905   1.083       .  S
C904        C906   1.399       .  A
C904        C910   1.405       .  A
C906        C907   1.399       .  A
C906        H911   1.084       .  S
C907        C908   1.416       .  A
C907       Br915   1.918       .  S
C908        C909   1.406       .  A
C909        C910   1.396       .  A
C909        H912   1.083       .  S
C910       Br916   1.920       .  S
C917        C918   1.408       .  A
C917        C922   1.401       .  A
C918        C919   1.395       .  A
C918       Br934   1.920       .  S
C919        C920   1.401       .  A
C919        H923   1.084       .  S
C920        C924   1.471       .  S
C920        C921   1.408       .  A
C921        C922   1.397       .  A
C921       Br933   1.919       .  S
C922        H925   1.084       .  S
C924        C926   1.402       .  A
C924        C930   1.408       .  A
C926        C927   1.398       .  A
C926        H931   1.083       .  S
C927        C928   1.408       .  A
C927       Br935   1.919       .  S
C928        C929   1.401       .  A
C929        C930   1.394       .  A
C929        H932   1.084       .  S
C930       Br936   1.921       .  S
C937        C938   1.411       .  A
C937        C942   1.405       .  A
C938        C939   1.398       .  A
C938       Br954   1.920       .  S
C939        C940   1.400       .  A
C939        H943   1.084       .  S
C940        C944   1.473       .  S
C940        C941   1.406       .  A
C941        C942   1.399       .  A
C941       Br953   1.919       .  S
C942        H945   1.084       .  S
C944        C946   1.398       .  A
C944        C950   1.402       .  A
C946        C947   1.398       .  A
C946        H951   1.084       .  S
C947        C948   1.421       .  A
C947       Br955   1.923       .  S
C948        C949   1.410       .  A
C949        C950   1.397       .  A
C949        H952   1.083       .  S
C950       Br956   1.918       .  S
C957        C958   1.413       .  A
C957        C962   1.406       .  A
C958        C959   1.396       .  A
C958       Br974   1.922       .  S
C959        C960   1.399       .  A
C959        H963   1.084       .  S
C960        C964   1.467       .  S
C960        C961   1.403       .  A
C961        C962   1.395       .  A
C961       Br973   1.918       .  S
C962        H965   1.084       .  S
C964        C966   1.397       .  A
C964        C970   1.401       .  A
C966        C967   1.396       .  A
C966        H971   1.084       .  S
C967        C968   1.421       .  A
C967       Br975   1.924       .  S
C968        C969   1.410       .  A
C969        C970   1.395       .  A
C969        H972   1.083       .  S
C970       Br976   1.918       .  S
C977        C978   1.416       .  A
C977        C982   1.404       .  A
C978        C979   1.395       .  A
C978       Br994   1.923       .  S
C979        C980   1.399       .  A
C979        H983   1.084       .  S
C980        C984   1.473       .  S
C980        C981   1.408       .  A
C981        C982   1.395       .  A
C981       Br993   1.920       .  S
C982        H985   1.083       .  S
C984        C986   1.401       .  A
C984        C990   1.408       .  A
C986        C987   1.394       .  A
C986        H991   1.084       .  S
C987        C988   1.410       .  A
C987       Br995   1.921       .  S
C988        C989   1.403       .  A
C989        C990   1.396       .  A
C989        H992   1.084       .  S
C990       Br996   1.920       .  S
C997        C998   1.419       .  A
C997       C1002   1.410       .  A
C998        C999   1.398       .  A
C998      Br1014   1.922       .  S
C999       C1000   1.398       .  A
C999       H1003   1.084       .  S
C1000      C1004   1.472       .  S
C1000      C1001   1.403       .  A
C1001      C1002   1.397       .  A
C1001     Br1013   1.919       .  S
C1002      H1005   1.083       .  S
C1004      C1006   1.400       .  A
C1004      C1010   1.405       .  A
C1006      C1007   1.399       .  A
C1006      H1011   1.084       .  S
C1007      C1008   1.414       .  A
C1007     Br1015   1.921       .  S
C1008      C1009   1.405       .  A
C1009      C1010   1.395       .  A
C1009      H1012   1.083       .  S
C1010     Br1016   1.919       .  S
C1017      C1018   1.420       .  A
C1017      C1022   1.409       .  A
C1018      C1019   1.397       .  A
C1018     Br1034   1.923       .  S
C1019      C1020   1.398       .  A
C1019      H1023   1.084       .  S
C1020      C1024   1.468       .  S
C1020      C1021   1.403       .  A
C1021      C1022   1.393       .  A
C1021     Br1033   1.920       .  S
C1022      H1025   1.083       .  S
C1024      C1026   1.398       .  A
C1024      C1030   1.404       .  A
C1026      C1027   1.394       .  A
C1026      H1031   1.084       .  S
C1027      C1028   1.416       .  A
C1027     Br1035   1.923       .  S
C1028      C1029   1.407       .  A
C1029      C1030   1.396       .  A
C1029      H1032   1.083       .  S
C1030     Br1036   1.919       .  S
C1037      C1038   1.418       .  A
C1037      C1042   1.409       .  A
C1038      C1039   1.398       .  A
C1038     Br1054   1.922       .  S
C1039      C1040   1.400       .  A
C1039      H1043   1.084       .  S
C1040      C1044   1.473       .  S
C1040      C1041   1.404       .  A
C1041      C1042   1.394       .  A
C1041     Br1053   1.921       .  S
C1042      H1045   1.083       .  S
C1044      C1046   1.402       .  A
C1044      C1050   1.406       .  A
C1046      C1047   1.398       .  A
C1046      H1051   1.084       .  S
C1047      C1048   1.413       .  A
C1047     Br1055   1.920       .  S
C1048      C1049   1.406       .  A
C1049      C1050   1.394       .  A
C1049      H1052   1.083       .  S
C1050     Br1056   1.921       .  S
C1057      C1058   1.419       .  A
C1057      C1062   1.409       .  A
C1058      C1059   1.395       .  A
C1058     Br1074   1.923       .  S
C1059      C1060   1.398       .  A
C1059      H1063   1.084       .  S
C1060      C1064   1.468       .  S
C1060      C1061   1.403       .  A
C1061      C1062   1.394       .  A
C1061     Br1073   1.919       .  S
C1062      H1065   1.083       .  S
C1064      C1066   1.401       .  A
C1064      C1070   1.406       .  A
C1066      C1067   1.398       .  A
C1066      H1071   1.084       .  S
C1067      C1068   1.411       .  A
C1067     Br1075   1.920       .  S
C1068      C1069   1.402       .  A
C1069      C1070   1.391       .  A
C1069      H1072   1.083       .  S
C1070     Br1076   1.921       .  S
C1077      C1078   1.408       .  A
C1077      C1082   1.401       .  A
C1078      C1079   1.394       .  A
C1078     Br1094   1.921       .  S
C1079      C1080   1.403       .  A
C1079      H1083   1.084       .  S
C1080      C1084   1.475       .  S
C1080      C1081   1.409       .  A
C1081      C1082   1.397       .  A
C1081     Br1093   1.920       .  S
C1082      H1085   1.084       .  S
C1084      C1086   1.403       .  A
C1084      C1090   1.409       .  A
C1086      C1087   1.395       .  A
C1086      H1091   1.084       .  S
C1087      C1088   1.409       .  A
C1087     Br1095   1.921       .  S
C1088      C1089   1.403       .  A
C1089      C1090   1.395       .  A
C1089      H1092   1.084       .  S
C1090     Br1096   1.920       .  S
C1097      C1098   1.421       .  A
C1097      C1102   1.409       .  A
C1098      C1099   1.400       .  A
C1098     Br1114   1.922       .  S
C1099      C1100   1.399       .  A
C1099      H1103   1.084       .  S
C1100      C1104   1.470       .  S
C1100      C1101   1.402       .  A
C1101      C1102   1.393       .  A
C1101     Br1113   1.920       .  S
C1102      H1105   1.083       .  S
C1104      C1106   1.399       .  A
C1104      C1110   1.406       .  A
C1106      C1107   1.397       .  A
C1106      H1111   1.084       .  S
C1107      C1108   1.415       .  A
C1107     Br1115   1.921       .  S
C1108      C1109   1.405       .  A
C1109      C1110   1.396       .  A
C1109      H1112   1.083       .  S
C1110     Br1116   1.919       .  S
C1117      C1118   1.417       .  A
C1117      C1122   1.406       .  A
C1118      C1119   1.397       .  A
C1118     Br1134   1.922       .  S
C1119      C1120   1.398       .  A
C1119      H1123   1.084       .  S
C1120      C1124   1.472       .  S
C1120      C1121   1.406       .  A
C1121      C1122   1.397       .  A
C1121     Br1133   1.919       .  S
C1122      H1125   1.083       .  S
C1124      C1126   1.401       .  A
C1124      C1130   1.406       .  A
C1126      C1127   1.399       .  A
C1126      H1131   1.083       .  S
C1127      C1128   1.412       .  A
C1127     Br1135   1.921       .  S
C1128      C1129   1.404       .  A
C1129      C1130   1.395       .  A
C1129      H1132   1.084       .  S
C1130     Br1136   1.920       .  S
C1137      C1138   1.416       .  A
C1137      C1142   1.407       .  A
C1138      C1139   1.397       .  A
C1138     Br1154   1.922       .  S
C1139      C1140   1.398       .  A
C1139      H1143   1.084       .  S
C1140      C1144   1.469       .  S
C1140      C1141   1.404       .  A
C1141      C1142   1.395       .  A
C1141     Br1153   1.919       .  S
C1142      H1145   1.083       .  S
C1144      C1146   1.398       .  A
C1144      C1150   1.404       .  A
C1146      C1147   1.399       .  A
C1146      H1151   1.084       .  S
C1147      C1148   1.418       .  A
C1147     Br1155   1.922       .  S
C1148      C1149   1.406       .  A
C1149      C1150   1.395       .  A
C1149      H1152   1.083       .  S
C1150     Br1156   1.920       .  S
C1157      C1158   1.415       .  A
C1157      C1162   1.407       .  A
C1158      C1159   1.396       .  A
C1158     Br1174   1.922       .  S
C1159      C1160   1.399       .  A
C1159      H1163   1.084       .  S
C1160      C1164   1.472       .  S
C1160      C1161   1.404       .  A
C1161      C1162   1.399       .  A
C1161     Br1173   1.918       .  S
C1162      H1165   1.083       .  S
C1164      C1166   1.399       .  A
C1164      C1170   1.403       .  A
C1166      C1167   1.399       .  A
C1166      H1171   1.084       .  S
C1167      C1168   1.418       .  A
C1167     Br1175   1.922       .  S
C1168      C1169   1.407       .  A
C1169      C1170   1.396       .  A
C1169      H1172   1.083       .  S
C1170     Br1176   1.918       .  S
C1177      C1178   1.417       .  A
C1177      C1182   1.406       .  A
C1178      C1179   1.400       .  A
C1178     Br1194   1.921       .  S
C1179      C1180   1.399   1_556  A
C1179      H1183   1.083       .  S
C1180      C1184   1.472       .  S
C1180      C1181   1.405       .  A
C1181      C1182   1.396   1_554  A
C1181     Br1193   1.919       .  S
C1182      H1185   1.083       .  S
C1184      C1186   1.399       .  A
C1184      C1190   1.404       .  A
C1186      C1187   1.398       .  A
C1186      H1191   1.084       .  S
C1187      C1188   1.416       .  A
C1187     Br1195   1.922       .  S
C1188      C1189   1.408       .  A
C1189      C1190   1.398       .  A
C1189      H1192   1.083       .  S
C1190     Br1196   1.917       .  S
C1197      C1198   1.416       .  A
C1197      C1202   1.408       .  A
C1198      C1199   1.399       .  A
C1198     Br1214   1.921       .  S
C1199      C1200   1.400       .  A
C1199      H1203   1.084       .  S
C1200      C1204   1.470       .  S
C1200      C1201   1.403       .  A
C1201      C1202   1.394       .  A
C1201     Br1213   1.919       .  S
C1202      H1205   1.083       .  S
C1204      C1206   1.400       .  A
C1204      C1210   1.403       .  A
C1206      C1207   1.400       .  A
C1206      H1211   1.084       .  S
C1207      C1208   1.416       .  A
C1207     Br1215   1.921       .  S
C1208      C1209   1.407       .  A
C1209      C1210   1.393       .  A
C1209      H1212   1.083       .  S
C1210     Br1216   1.920       .  S
C1217      C1218   1.415       .  A
C1217      C1222   1.406       .  A
C1218      C1219   1.402       .  A
C1218     Br1234   1.920       .  S
C1219      C1220   1.402       .  A
C1219      H1223   1.083       .  S
C1220      C1224   1.475       .  S
C1220      C1221   1.404       .  A
C1221      C1222   1.393       .  A
C1221     Br1233   1.920       .  S
C1222      H1225   1.083       .  S
C1224      C1226   1.400       .  A
C1224      C1230   1.407       .  A
C1226      C1227   1.396       .  A
C1226      H1231   1.084       .  S
C1227      C1228   1.413       .  A
C1227     Br1235   1.922       .  S
C1228      C1229   1.406       .  A
C1229      C1230   1.400       .  A
C1229      H1232   1.083       .  S
C1230     Br1236   1.918       .  S
C1237      C1238   1.409       .  A
C1237      C1242   1.403       .  A
C1238      C1239   1.394       .  A
C1238     Br1254   1.919       .  S
C1239      C1240   1.401       .  A
C1239      H1243   1.084       .  S
C1240      C1244   1.477       .  S
C1240      C1241   1.410       .  A
C1241      C1242   1.400       .  A
C1241     Br1253   1.919       .  S
C1242      H1245   1.083       .  S
C1244      C1246   1.401       .  A
C1244      C1250   1.408       .  A
C1246      C1247   1.398       .  A
C1246      H1251   1.084       .  S
C1247      C1248   1.415       .  A
C1247     Br1255   1.922       .  S
C1248      C1249   1.405       .  A
C1249      C1250   1.396       .  A
C1249      H1252   1.083       .  S
C1250     Br1256   1.920       .  S
C1257      C1258   1.420       .  A
C1257      C1262   1.409       .  A
C1258      C1259   1.397       .  A
C1258     Br1274   1.924       .  S
C1259      C1260   1.398       .  A
C1259      H1263   1.084       .  S
C1260      C1264   1.472   1_556  S
C1260      C1261   1.404       .  A
C1261      C1262   1.397       .  A
C1261     Br1273   1.919   1_556  S
C1262      H1265   1.083       .  S
C1264      C1266   1.402       .  A
C1264      C1270   1.405       .  A
C1266      C1267   1.402       .  A
C1266      H1271   1.083       .  S
C1267      C1268   1.415       .  A
C1267     Br1275   1.920       .  S
C1268      C1269   1.405       .  A
C1269      C1270   1.392       .  A
C1269      H1272   1.083       .  S
C1270     Br1276   1.921   1_554  S
C1277      C1278   1.410       .  A
C1277      C1282   1.405       .  A
C1278      C1279   1.396       .  A
C1278     Br1294   1.921       .  S
C1279      C1280   1.401       .  A
C1279      H1283   1.084       .  S
C1280      C1284   1.468       .  S
C1280      C1281   1.403       .  A
C1281      C1282   1.396       .  A
C1281     Br1293   1.918       .  S
C1282      H1285   1.084       .  S
C1284      C1286   1.399       .  A
C1284      C1290   1.403       .  A
C1286      C1287   1.398       .  A
C1286      H1291   1.084       .  S
C1287      C1288   1.415       .  A
C1287     Br1295   1.921       .  S
C1288      C1289   1.407       .  A
C1289      C1290   1.393       .  A
C1289      H1292   1.083       .  S
C1290     Br1296   1.920       .  S
