geometry optimzed in LAMMPS
_audit_creation_date              2020-12-01 
_audit_creation_method            'lammps2cif' 
_symmetry_space_group_name_H-M    'P1' 
_symmetry_Int_Tables_number       1 
_symmetry_cell_setting            triclinic 
loop_ 
_symmetry_equiv_pos_as_xyz 
  x,y,z 
_cell_length_a                    28.35409647 
_cell_length_b                    28.194157564946035 
_cell_length_c                    41.96127133204157 
_cell_angle_alpha                 90.40508524877647 
_cell_angle_beta                  90.28231629956656 
_cell_angle_gamma                 90.33321846309177 
loop_ 
_atom_site_label 
_atom_site_type_symbol 
_atom_site_fract_x 
_atom_site_fract_y 
_atom_site_fract_z 
_atom_site_charge 
O1          O  0.38561684  0.22609532  0.14027337    -0.71700
O2          O  0.42929180  0.09811943  0.12945398    -0.71900
O3          O  0.38985830  0.16386855  0.09150441    -0.71800
O4          O  0.42769899  0.15984497  0.17831913    -0.71800
O5          O  0.35950209  0.13153716  0.19143484    -0.71700
O6          O  0.32003433  0.13795796  0.10378182    -0.71800
O7          O  0.35928921  0.07292711  0.14120036    -0.71700
O8          O  0.31763326  0.19754330  0.15438356    -0.71900
V9          V  0.40682413  0.16165164  0.13517802     1.35200
V10         V  0.34044815  0.13579878  0.14749489     1.35200
C11         C  0.34335398  0.23313464  0.14894898     0.77500
C12         C  0.40114871  0.06362248  0.13404197     0.77600
C13         C  0.34914499  0.15096625  0.08264678     0.77500
C14         C  0.40122275  0.14303029  0.19968785     0.77400
O15         O  0.49995643  0.71291601  0.14033116    -0.71700
O16         O  0.44567987  0.83500952  0.12603150    -0.71900
O17         O  0.49250655  0.77155810  0.09037970    -0.71800
O18         O  0.45168251  0.77644859  0.17581843    -0.71800
O19         O  0.51675059  0.81119191  0.18990460    -0.71700
O20         O  0.55913119  0.80488793  0.10337374    -0.71800
O21         O  0.51251441  0.86813428  0.13898376    -0.71700
O22         O  0.56512039  0.74831586  0.15411020    -0.71900
V23         V  0.47371663  0.77463958  0.13335684     1.35200
V24         V  0.53709988  0.80737214  0.14640510     1.35200
C25         C  0.54229655  0.71021855  0.14997705     0.77500
C26         C  0.47035586  0.87222201  0.13004775     0.77600
C27         C  0.53261936  0.78650046  0.08222016     0.77500
C28         C  0.47648156  0.79522713  0.19764052     0.77400
O29         O  0.39467867  0.22848736  0.88942771    -0.71700
O30         O  0.44296832  0.10421209  0.90523303    -0.71900
O31         O  0.44232153  0.16290339  0.85494047    -0.71800
O32         O  0.39651121  0.16995016  0.93984514    -0.71800
O33         O  0.32918074  0.14022008  0.92466200    -0.71700
O34         O  0.37677956  0.13011910  0.83974117    -0.71800
O35         O  0.37567452  0.07430874  0.89089941    -0.71700
O36         O  0.32934221  0.19636101  0.87239827    -0.71900
V37         V  0.41785845  0.16586153  0.89709128     1.35200
V38         V  0.35399587  0.13600536  0.88226263     1.35200
C39         C  0.35361715  0.23321216  0.87785462     0.77500
C40         C  0.41745970  0.06779176  0.90033755     0.77600
C41         C  0.41773081  0.14468556  0.83272486     0.77500
C42         C  0.35535154  0.15631079  0.94686621     0.77400
O43         O  0.50396086  0.71105279  0.88780802    -0.71700
O44         O  0.45373013  0.83503129  0.90141086    -0.71900
O45         O  0.45893479  0.77518530  0.85150687    -0.71800
O46         O  0.49730266  0.77073433  0.93773610    -0.71800
O47         O  0.56463311  0.80312728  0.92599900    -0.71700
O48         O  0.52629385  0.80594119  0.83859299    -0.71800
O49         O  0.52105901  0.86557288  0.88837058    -0.71700
O50         O  0.57121004  0.74336607  0.87557722    -0.71900
V51         V  0.47978686  0.77356916  0.89436909     1.35200
V52         V  0.54455063  0.80375579  0.88237278     1.35200
C53         C  0.54651482  0.70650758  0.87935684     0.77500
C54         C  0.47897351  0.87161577  0.89706274     0.77600
C55         C  0.48569437  0.79148821  0.83021048     0.77500
C56         C  0.53677816  0.78684915  0.94681014     0.77400
O57         O  0.40364090  0.70828430  0.64010323    -0.71700
O58         O  0.44694869  0.83540473  0.63269974    -0.71900
O59         O  0.44060001  0.77355313  0.68018454    -0.71800
O60         O  0.41084383  0.76993940  0.59309840    -0.71800
O61         O  0.33864374  0.79011690  0.60259564    -0.71700
O62         O  0.37262122  0.80427218  0.69084486    -0.71800
O63         O  0.37582920  0.86056044  0.63947628    -0.71700
O64         O  0.33478367  0.73462550  0.65411916    -0.71900
V65         V  0.42413013  0.77236990  0.63677637     1.35200
V66         V  0.35666563  0.79702004  0.64662034     1.35200
C67         C  0.36150869  0.70008555  0.64809119     0.77500
C68         C  0.41885936  0.86989762  0.63457579     0.77600
C69         C  0.41278955  0.79079397  0.70050750     0.77500
C70         C  0.36957135  0.77669411  0.58281473     0.77400
O71         O  0.50721963  0.22778164  0.64190071    -0.71700
O72         O  0.45349982  0.10327411  0.63794452    -0.71900
O73         O  0.46805366  0.16734448  0.68440102    -0.71800
O74         O  0.49032226  0.16360929  0.59597546    -0.71800
O75         O  0.56191955  0.14005923  0.60383805    -0.71700
O76         O  0.53368408  0.13075753  0.69358687    -0.71800
O77         O  0.52357216  0.07404618  0.64221917    -0.71700
O78         O  0.57422708  0.19665498  0.65554628    -0.71900
V79         V  0.48110635  0.16505392  0.64037401     1.35200
V80         V  0.54721428  0.13599099  0.64871885     1.35200
C81         C  0.55040916  0.23299033  0.64909699     0.77500
C82         C  0.47986068  0.06719166  0.63846292     0.77600
C83         C  0.49508910  0.14729198  0.70406917     0.77500
C84         C  0.52989258  0.15321788  0.58448192     0.77400
O85         O  0.39759984  0.69228604  0.38244351    -0.71700
O86         O  0.44414164  0.81892315  0.39710577    -0.71900
O87         O  0.40969181  0.74921404  0.43328329    -0.71800
O88         O  0.43418284  0.76278350  0.34570710    -0.67000
O89         O  0.36359649  0.78963553  0.33777573    -0.71700
O90         O  0.33976243  0.77800159  0.42750430    -0.71800
O91         O  0.37404694  0.84630623  0.38926365    -0.71700
O92         O  0.32743378  0.72124920  0.37600268    -0.71900
V93         V  0.41997243  0.75623165  0.38941032     1.35200
V94         V  0.35245526  0.78309351  0.38270960     1.35200
C95         C  0.35389838  0.68542160  0.37740619     0.77500
C96         C  0.41698799  0.85445351  0.39556727     0.77600
C97         C  0.37147635  0.76162234  0.44579658     0.77500
C98         C  0.40402471  0.77968473  0.32678490     0.77400
O99         O  0.50024558  0.21534769  0.38501973    -0.71700
O100        O  0.44962749  0.09009188  0.39984627    -0.71900
O101        O  0.49158390  0.15778482  0.43575540    -0.71800
O102        O  0.45559951  0.14851538  0.34945643    -0.71800
O103        O  0.52230817  0.11639261  0.33725622    -0.71700
O104        O  0.56039206  0.12851398  0.42573370    -0.71800
O105        O  0.51821509  0.06092971  0.38949659    -0.71700
O106        O  0.56702263  0.18296205  0.37267190    -0.71900
V107        V  0.47562465  0.15234666  0.39231991     1.35200
V108        V  0.54073557  0.12282537  0.38152499     1.35200
C109        C  0.54271188  0.21995680  0.37587163     0.77500
C110        C  0.47578415  0.05381022  0.39711081     0.77600
C111        C  0.53142903  0.14511603  0.44599227     0.77500
C112        C  0.48188267  0.13085309  0.32838821     0.77400
O113        O  0.19040399  0.40476615  0.12518700    -0.71700
O114        O  0.06192213  0.44524722  0.11584407    -0.71900
O115        O  0.12669360  0.44818390  0.16278832    -0.71800
O116        O  0.12503112  0.40351886  0.07789638    -0.71800
O117        O  0.10075484  0.33407496  0.09309473    -0.71700
O118        O  0.10160061  0.38041188  0.17966882    -0.71800
O119        O  0.03813518  0.37618623  0.13159004    -0.71700
O120        O  0.16432392  0.33678477  0.14176895    -0.71900
V121        V  0.12564443  0.42401876  0.12072176     1.35200
V122        V  0.10185563  0.35808959  0.13620429     1.35200
C123        C  0.19891800  0.36363875  0.13577945     0.77500
C124        C  0.02805577  0.41731968  0.12234024     0.77600
C125        C  0.11456961  0.42274883  0.18592036     0.77500
C126        C  0.11111483  0.36224219  0.07069415     0.77400
O127        O  0.68128929  0.52724231  0.12563332    -0.71700
O128        O  0.80032179  0.46757800  0.11024265    -0.71900
O129        O  0.74341367  0.47720594  0.16059683    -0.71800
O130        O  0.73826865  0.51682854  0.07431065    -0.71800
O131        O  0.77587551  0.58176435  0.08642712    -0.71700
O132        O  0.77912213  0.54271396  0.17384406    -0.71800
O133        O  0.83616337  0.53327983  0.12327700    -0.71700
O134        O  0.71907414  0.59204853  0.13764196    -0.71900
V135        V  0.74147517  0.49853584  0.11778780     1.35200
V136        V  0.77668980  0.56125108  0.12998313     1.35200
C137        C  0.68032307  0.56992446  0.13526855     0.77500
C138        C  0.83844490  0.49040664  0.11482236     0.77600
C139        C  0.76219319  0.50289613  0.18201024     0.77500
C140        C  0.75651791  0.55551092  0.06540173     0.77400
O141        O  0.20280601  0.40823209  0.88652585    -0.71700
O142        O  0.07890816  0.46007695  0.88845744    -0.71900
O143        O  0.13303046  0.41330937  0.92999944    -0.71800
O144        O  0.14776602  0.45662529  0.84514715    -0.71800
O145        O  0.11668688  0.39116745  0.82728134    -0.71700
O146        O  0.10633829  0.34543831  0.91271490    -0.71800
O147        O  0.05060985  0.39253840  0.87215009    -0.71700
O148        O  0.17357136  0.34275778  0.86705255    -0.71900
V149        V  0.14028775  0.43318559  0.88721375     1.35200
V150        V  0.11262486  0.36914591  0.87015201     1.35200
C151        C  0.20911413  0.36647923  0.87615562     0.77500
C152        C  0.04359898  0.43498261  0.88045886     0.77600
C153        C  0.11596802  0.37286841  0.93594766     0.77500
C154        C  0.13244532  0.43244084  0.82178041     0.77400
O155        O  0.68985608  0.52394350  0.87085561    -0.71700
O156        O  0.81386522  0.47459454  0.88165519    -0.71900
O157        O  0.75046335  0.51708236  0.91955595    -0.71800
O158        O  0.75342478  0.47973425  0.83264081    -0.71800
O159        O  0.78128542  0.54834148  0.81945604    -0.71700
O160        O  0.78312807  0.58462373  0.90802964    -0.71800
O161        O  0.84314580  0.54217806  0.86755837    -0.71700
O162        O  0.72080930  0.59248082  0.85970501    -0.71900
V163        V  0.75241549  0.50016218  0.87584333     1.35200
V164        V  0.78133598  0.56568868  0.86387886     1.35200
C165        C  0.68458176  0.56734733  0.86429175     0.77500
C166        C  0.84983338  0.49986324  0.87594376     0.77600
C167        C  0.76677813  0.55659138  0.92884045     0.77500
C168        C  0.76904475  0.50666868  0.81108389     0.77400
O169        O  0.70324384  0.40662160  0.62078088    -0.71700
O170        O  0.82870478  0.45665682  0.61308690    -0.71900
O171        O  0.76658913  0.41408430  0.57333293    -0.71800
O172        O  0.76510628  0.45153093  0.66002777    -0.71800
O173        O  0.79306782  0.38355569  0.67424352    -0.71700
O174        O  0.79673838  0.34597549  0.58565628    -0.71800
O175        O  0.85646699  0.38832029  0.62696603    -0.71700
O176        O  0.73321183  0.33856624  0.63359549    -0.71900
V177        V  0.76643265  0.43083286  0.61702976     1.35200
V178        V  0.79417328  0.36533188  0.62983369     1.35200
C179        C  0.69729142  0.36368629  0.62874312     0.77500
C180        C  0.86399643  0.43078785  0.61929146     0.77600
C181        C  0.78235902  0.37445977  0.56440581     0.77500
C182        C  0.77924887  0.42485440  0.68210115     0.77400
O183        O  0.22213655  0.51089800  0.63279524    -0.71700
O184        O  0.09597128  0.46032409  0.62758247    -0.71900
O185        O  0.15868114  0.49294271  0.58593654    -0.71800
O186        O  0.15917335  0.47524985  0.67476282    -0.71800
O187        O  0.12653075  0.54406424  0.68179385    -0.71700
O188        O  0.13487297  0.56521415  0.59146529    -0.71800
O189        O  0.06914923  0.53180994  0.63111967    -0.71700
O190        O  0.19217401  0.58027145  0.64236841    -0.71900
V191        V  0.15859139  0.48622646  0.63044465     1.35200
V192        V  0.13134542  0.55406228  0.63662891     1.35200
C193        C  0.22811416  0.55477619  0.63878802     0.77500
C194        C  0.06090100  0.48812468  0.62753210     0.77600
C195        C  0.14745922  0.53148249  0.57315816     0.77500
C196        C  0.14156210  0.50546278  0.69338573     0.77400
O197        O  0.68919716  0.40230092  0.37231051    -0.71700
O198        O  0.81244745  0.45827297  0.38009236    -0.71900
O199        O  0.74839113  0.44971281  0.33286141    -0.71800
O200        O  0.75363045  0.41264065  0.41945594    -0.71800
O201        O  0.78270667  0.34434397  0.40603465    -0.71700
O202        O  0.78286813  0.38476408  0.31871883    -0.71800
O203        O  0.84318031  0.39007107  0.36830445    -0.71700
O204        O  0.72150057  0.33697067  0.35605451    -0.71900
V205        V  0.75139737  0.42941673  0.37585924     1.35200
V206        V  0.78175341  0.36525113  0.36247014     1.35200
C207        C  0.68454126  0.35980052  0.36256176     0.77500
C208        C  0.84881525  0.43301099  0.37606482     0.77600
C209        C  0.76609308  0.42469014  0.31088252     0.77500
C210        C  0.76916334  0.37268741  0.42772834     0.77400
O211        O  0.20757600  0.50144426  0.37651306    -0.71700
O212        O  0.07907280  0.45901784  0.38449242    -0.71900
O213        O  0.14087212  0.46372965  0.33682237    -0.71800
O214        O  0.14556277  0.49361682  0.42417011    -0.71800
O215        O  0.12697090  0.56675103  0.41512735    -0.71700
O216        O  0.11065684  0.53257938  0.32664342    -0.71800
O217        O  0.05618998  0.53160136  0.37856774    -0.71700
O218        O  0.18122394  0.57036339  0.36232237    -0.71900
V219        V  0.14292691  0.48082243  0.38031120     1.35200
V220        V  0.11933960  0.54908395  0.37083468     1.35200
C221        C  0.21584510  0.54370962  0.36771380     0.77500
C222        C  0.04560071  0.48864475  0.38285561     0.77600
C223        C  0.12232397  0.49142343  0.31707217     0.77500
C224        C  0.13836134  0.53478854  0.43490750     0.77400
C225        C  0.92892829  0.42355939  0.39809325    -0.05700
C226        C  0.89737996  0.45157048  0.38056245     0.00200
C227        C  0.91425534  0.49253241  0.36498835    -0.08300
C228        C  0.96262578  0.50365461  0.36729329    -0.05700
C229        C  0.99479721  0.47465133  0.38383048     0.00200
C230        C  0.97750534  0.43408340  0.39990365    -0.08300
C231        C  0.00974758  0.40160740  0.41860556     0.62100
H232        H  0.91519603  0.39218671  0.40967863     0.12800
H233        H  0.97601830  0.53451948  0.35498302     0.12800
C234        C  0.88201554  0.52274288  0.34453035     0.62400
F235        F  0.98458676  0.36811076  0.43562314    -0.22800
F236        F  0.03647296  0.42787144  0.44011298    -0.20100
F237        F  0.03916566  0.37772792  0.39786308    -0.19800
F238        F  0.84717444  0.54262289  0.36318606    -0.19900
F239        F  0.86140372  0.49493789  0.32093791    -0.20200
F240        F  0.90625874  0.55930455  0.32988811    -0.22900
C241        C  0.12031252  0.56994889  0.52267547    -0.05700
C242        C  0.14899508  0.53591411  0.53764402     0.00200
C243        C  0.17706286  0.50553419  0.51819095    -0.08300
C244        C  0.17578051  0.51136245  0.48507689    -0.05700
C245        C  0.14444309  0.54240980  0.46997347     0.00200
C246        C  0.11646260  0.57282900  0.48904354    -0.08300
C247        C  0.08159003  0.60673640  0.47415786     0.62100
H248        H  0.09902703  0.59279567  0.53755850     0.12800
H249        H  0.19739549  0.48874317  0.47025030     0.12800
C250        C  0.20601272  0.46444410  0.53121013     0.62400
F251        F  0.05540234  0.63043348  0.49696054    -0.22800
F252        F  0.05052714  0.58201321  0.45457876    -0.20100
F253        F  0.10569503  0.64009532  0.45644953    -0.19800
F254        F  0.17598770  0.42941834  0.54221083    -0.19900
F255        F  0.23508999  0.47960296  0.55562607    -0.20200
F256        F  0.23461892  0.44415676  0.50825143    -0.22900
C257        C  0.73664653  0.36519423  0.51486036    -0.05700
C258        C  0.78087373  0.36270946  0.52975254     0.00200
C259        C  0.82164406  0.35734375  0.51060494    -0.08300
C260        C  0.81641312  0.35641183  0.47693492    -0.05700
C261        C  0.77192654  0.36133122  0.46227262     0.00200
C262        C  0.73128181  0.36357316  0.48161647    -0.08300
C263        C  0.68216936  0.36444533  0.46718137     0.62100
H264        H  0.70609461  0.37123786  0.52949009     0.12800
H265        H  0.84727480  0.35527003  0.46184383     0.12800
C266        C  0.87043376  0.35672167  0.52555256     0.62400
F267        F  0.64757503  0.35902658  0.49006907    -0.22800
F268        F  0.67755749  0.32750780  0.44553276    -0.20100
F269        F  0.67463191  0.40705797  0.45196165    -0.19800
F270        F  0.87345474  0.32005206  0.54714988    -0.19900
F271        F  0.87891529  0.39928748  0.54120524    -0.20200
F272        F  0.90529776  0.35038737  0.50294276    -0.22900
C273        C  0.94852254  0.41583377  0.60947704    -0.05700
C274        C  0.91344852  0.44837287  0.61840341     0.00200
C275        C  0.92702207  0.49390492  0.62957743    -0.08300
C276        C  0.97537425  0.50487838  0.63173360    -0.05700
C277        C  0.01081262  0.47193557  0.62373607     0.00200
C278        C  0.99702376  0.42655945  0.61194917    -0.08300
C279        C  0.03268327  0.38939751  0.60192208     0.62100
H280        H  0.93742098  0.38114342  0.60099302     0.12800
H281        H  0.98579767  0.53954820  0.64055251     0.12800
C282        C  0.89102563  0.52994287  0.64090195     0.62400
F283        F  0.01115123  0.34906101  0.58951304    -0.22800
F284        F  0.05923862  0.37586870  0.62801761    -0.20100
F285        F  0.06191914  0.40765935  0.57867248    -0.19800
F286        F  0.86395912  0.51038182  0.66481523    -0.19900
F287        F  0.86224587  0.54302418  0.61580046    -0.20200
F288        F  0.91213052  0.57069095  0.65300435    -0.22900
C289        C  0.78351802  0.49337616  0.71986757    -0.05700
C290        C  0.77995609  0.44377890  0.71575672     0.00200
C291        C  0.77555263  0.41533896  0.74333272    -0.08300
C292        C  0.77167250  0.43781692  0.77342880    -0.05700
C293        C  0.77407692  0.48757189  0.77755107     0.00200
C294        C  0.78218591  0.51579489  0.75009769    -0.08300
C295        C  0.78908194  0.56923578  0.75203332     0.62100
H296        H  0.78759288  0.51492779  0.69882414     0.12800
H297        H  0.76740900  0.41604656  0.79435737     0.12800
C298        C  0.77477755  0.36156778  0.74136682     0.62400
F299        F  0.79738923  0.58896940  0.72242848    -0.22800
F300        F  0.82755765  0.58007375  0.77117035    -0.20100
F301        F  0.74908570  0.59000487  0.76435672    -0.19800
F302        F  0.81754510  0.34566271  0.72988455    -0.19900
F303        F  0.73876737  0.34646106  0.72134614    -0.20200
F304        F  0.76765998  0.34105702  0.77085956    -0.22900
C305        C  0.17073293  0.48200775  0.78031090    -0.05700
C306        C  0.13257591  0.45279600  0.78905471     0.00200
C307        C  0.09463692  0.44611491  0.76711852    -0.08300
C308        C  0.09805701  0.46606931  0.73649928    -0.05700
C309        C  0.13704969  0.49343845  0.72749628     0.00200
C310        C  0.17370534  0.50215956  0.74971701    -0.08300
C311        C  0.21619846  0.53158756  0.74051154     0.62100
H312        H  0.19894686  0.48794598  0.79739931     0.12800
H313        H  0.07062516  0.45951196  0.71891544     0.12800
C314        C  0.04989684  0.41961723  0.77607819     0.62400
F315        F  0.24776889  0.53723930  0.76553693    -0.22800
F316        F  0.20156190  0.57607311  0.73103557    -0.20100
F317        F  0.23929854  0.50939589  0.71564606    -0.19800
F318        F  0.03172763  0.43857166  0.80387681    -0.19900
F319        F  0.05947172  0.37208194  0.78037069    -0.20200
F320        F  0.01549591  0.42303634  0.75267811    -0.22900
C321        C  0.93597563  0.51475214  0.87436233    -0.05700
C322        C  0.89899176  0.48167167  0.87847554     0.00200
C323        C  0.91035567  0.43327112  0.88358354    -0.08300
C324        C  0.95811867  0.42041721  0.88476049    -0.05700
C325        C  0.99480077  0.45351101  0.88067004     0.00200
C326        C  0.98367426  0.50158291  0.87493125    -0.08300
C327        C  0.02145301  0.53876544  0.86840998     0.62100
H328        H  0.92734885  0.55158162  0.87042165     0.12800
H329        H  0.96732312  0.38376127  0.88889005     0.12800
C330        C  0.87304407  0.39479276  0.88750047     0.62400
F331        F  0.00226238  0.58168873  0.85935930    -0.22800
F332        F  0.05039356  0.52356209  0.84396626    -0.20100
F333        F  0.04808507  0.54663970  0.89564934    -0.19800
F334        F  0.84368619  0.39348128  0.86106680    -0.19900
F335        F  0.84698115  0.40370387  0.91464683    -0.20200
F336        F  0.89266413  0.35017940  0.89055375    -0.22900
C337        C  0.77741323  0.43724611  0.21958153    -0.05700
C338        C  0.76523186  0.48502384  0.21536958     0.00200
C339        C  0.75412506  0.51285689  0.24249989    -0.08300
C340        C  0.75568396  0.49165078  0.27286746    -0.05700
C341        C  0.76731630  0.44345534  0.27730757     0.00200
C342        C  0.77896173  0.41583411  0.24991365    -0.08300
C343        C  0.79252053  0.36393610  0.25208077     0.62100
H344        H  0.78591668  0.41661036  0.19854433     0.12800
H345        H  0.74728153  0.51299854  0.29357304     0.12800
C346        C  0.73811825  0.56393706  0.23938207     0.62400
F347        F  0.80028422  0.34384656  0.22236817    -0.22800
F348        F  0.75662810  0.33856013  0.26633305    -0.20100
F349        F  0.83364842  0.35960427  0.26964573    -0.19800
F350        F  0.69929124  0.56572338  0.21938234    -0.19900
F351        F  0.77407403  0.59146128  0.22706477    -0.20200
F352        F  0.72542820  0.58345183  0.26845272    -0.22900
C353        C  0.80114351  0.57514387  0.01615081    -0.05700
C354        C  0.75730348  0.56750966  0.03081233     0.00200
C355        C  0.71617260  0.56515960  0.01147977    -0.08300
C356        C  0.72078927  0.56597145  0.97810182    -0.05700
C357        C  0.76500337  0.56849581  0.96338932     0.00200
C358        C  0.80593519  0.57433884  0.98258933    -0.08300
C359        C  0.85459115  0.57575030  0.96779616     0.62100
H360        H  0.83209448  0.57805929  0.03117571     0.12800
H361        H  0.68979735  0.56180013  0.96306509     0.12800
C362        C  0.66756361  0.56098155  0.02598259     0.62400
F363        F  0.88974219  0.58109832  0.99058612    -0.22800
F364        F  0.85772722  0.61340883  0.94698762    -0.20100
F365        F  0.86254846  0.53389523  0.95133662    -0.19800
F366        F  0.66207248  0.59572879  0.04910018    -0.19900
F367        F  0.66211073  0.51665257  0.03930374    -0.20200
F368        F  0.63223736  0.56658122  0.00349084    -0.22900
C369        C  0.13894494  0.50102917  0.25989952    -0.05700
C370        C  0.11588376  0.47550510  0.28357682     0.00200
C371        C  0.09070502  0.43350717  0.27523795    -0.08300
C372        C  0.09083830  0.41786940  0.24318097    -0.05700
C373        C  0.11542984  0.44250740  0.21930402     0.00200
C374        C  0.14001487  0.48522963  0.22798502    -0.08300
C375        C  0.16861165  0.51407386  0.20434981     0.62100
H376        H  0.15748489  0.53310088  0.26696440     0.12800
H377        H  0.07164738  0.38595266  0.23656637     0.12800
C378        C  0.06247577  0.40619493  0.29988337     0.62400
F379        F  0.19296325  0.55104939  0.21896188    -0.22800
F380        F  0.13887472  0.53360803  0.18182091    -0.20100
F381        F  0.20155985  0.48539210  0.18964830    -0.19800
F382        F  0.03071615  0.43628405  0.31447929    -0.19900
F383        F  0.09222821  0.38745757  0.32267487    -0.20200
F384        F  0.03724211  0.36898298  0.28628220    -0.22900
C385        C  0.07204277  0.38138738  0.02058744    -0.05700
C386        C  0.10330711  0.35125929  0.03648351     0.00200
C387        C  0.13202276  0.32023967  0.01847814    -0.08300
C388        C  0.13378808  0.32592042  0.98496726    -0.05700
C389        C  0.10603748  0.36005757  0.96950132     0.00200
C390        C  0.07214635  0.38559323  0.98730231    -0.08300
C391        C  0.03652505  0.41774160  0.97130993     0.62100
H392        H  0.04931328  0.40385804  0.03469735     0.12800
H393        H  0.15797410  0.30499303  0.97080573     0.12800
C394        C  0.15969705  0.28124869  0.03452560     0.62400
F395        F  0.00267063  0.43357732  0.99250478    -0.22800
F396        F  0.01363068  0.39297930  0.94720728    -0.20100
F397        F  0.05902056  0.45690312  0.95872072    -0.19800
F398        F  0.12851461  0.24962268  0.04823838    -0.19900
F399        F  0.18867057  0.29972406  0.05802848    -0.20200
F400        F  0.18745112  0.25666760  0.01304172    -0.22900
C401        C  0.96651595  0.46532900  0.09542362    -0.05700
C402        C  0.97786808  0.43220844  0.11913099     0.00200
C403        C  0.94131249  0.41474577  0.13923243    -0.08300
C404        C  0.89548512  0.43305833  0.13575679    -0.05700
C405        C  0.88496772  0.46739258  0.11296978     0.00200
C406        C  0.92038783  0.48287892  0.09180603    -0.08300
C407        C  0.90885735  0.51680516  0.06504386     0.62100
H408        H  0.99415134  0.47750256  0.07971623     0.12800
H409        H  0.86755454  0.42180533  0.15155772     0.12800
C410        C  0.95019728  0.37795691  0.16488313     0.62400
F411        F  0.94655327  0.52288040  0.04461010    -0.22800
F412        F  0.89704587  0.56067103  0.07746053    -0.20100
F413        F  0.87125957  0.49890498  0.04749760    -0.19800
F414        F  0.98680195  0.39264766  0.18458706    -0.19900
F415        F  0.96130535  0.33500070  0.15076997    -0.20200
F416        F  0.91095768  0.37071703  0.18380619    -0.22900
C417        C  0.58966259  0.27041664  0.33987007    -0.05700
C418        C  0.56569188  0.26640695  0.36898092     0.00200
C419        C  0.57305851  0.30171681  0.39269353    -0.08300
C420        C  0.60899567  0.33597423  0.38814539    -0.05700
C421        C  0.63785780  0.33519262  0.36104205     0.00200
C422        C  0.62511603  0.30490235  0.33525637    -0.08300
C423        C  0.64909093  0.30849171  0.30310296     0.62100
H424        H  0.58270475  0.24430811  0.32149014     0.12800
H425        H  0.61726435  0.36140169  0.40699231     0.12800
C426        C  0.54513716  0.30125742  0.42334319     0.62400
F427        F  0.62370371  0.28471039  0.27958993    -0.22800
F428        F  0.69358274  0.28896444  0.30465867    -0.20100
F429        F  0.65268605  0.35558881  0.29428295    -0.19800
F430        F  0.55308526  0.25942087  0.43942989    -0.19900
F431        F  0.49760499  0.30497231  0.41632390    -0.20200
F432        F  0.55759781  0.33863541  0.44329221    -0.22900
C433        C  0.31049099  0.62869544  0.34321841    -0.05700
C434        C  0.33241586  0.63752664  0.37264247     0.00200
C435        C  0.32397369  0.60567405  0.39810154    -0.08300
C436        C  0.28975994  0.56936895  0.39414807    -0.05700
C437        C  0.26396727  0.56443925  0.36569669     0.00200
C438        C  0.27735949  0.59193289  0.33906674    -0.08300
C439        C  0.25471217  0.58603277  0.30655235     0.62100
H440        H  0.31731360  0.65247713  0.32364600     0.12800
H441        H  0.27947762  0.54788703  0.41428930     0.12800
C442        C  0.34870427  0.61184807  0.42982453     0.62400
F443        F  0.28887841  0.58889148  0.28317176    -0.22800
F444        F  0.22230588  0.62180756  0.30192165    -0.20100
F445        F  0.23236856  0.54253629  0.30331476    -0.19800
F446        F  0.33852353  0.65599964  0.44244089    -0.19900
F447        F  0.39674840  0.60763772  0.42529399    -0.20200
F448        F  0.33484251  0.57793776  0.45165068    -0.22900
C449        C  0.39947070  0.94057384  0.40348265    -0.05700
C450        C  0.43384506  0.90481343  0.40027734     0.00200
C451        C  0.48212288  0.91868534  0.40057330    -0.08300
C452        C  0.49347909  0.96749110  0.40072444    -0.05700
C453        C  0.45897309  0.00340905  0.40144717     0.00200
C454        C  0.41103418  0.98944509  0.40473732    -0.08300
C455        C  0.37194228  0.02535247  0.40949928     0.62100
H456        H  0.36280034  0.92995261  0.40460901     0.12800
H457        H  0.53018790  0.97794598  0.39974268     0.12800
C458        C  0.52197504  0.88279361  0.40045880     0.62400
F459        F  0.32865821  0.00371262  0.41446613    -0.22800
F460        F  0.36792397  0.05361415  0.38283790    -0.20100
F461        F  0.38189486  0.05323143  0.43598840    -0.19800
F462        F  0.51990683  0.85549344  0.37296520    -0.19900
F463        F  0.51832731  0.85399944  0.42691428    -0.20200
F464        F  0.56595198  0.90436662  0.40159456    -0.22900
C465        C  0.58511794  0.29300551  0.61489309    -0.05700
C466        C  0.57512527  0.27884959  0.64608488     0.00200
C467        C  0.59991835  0.30032186  0.67178800    -0.08300
C468        C  0.63733547  0.33160762  0.66508488    -0.05700
C469        C  0.65018311  0.34225982  0.63367737     0.00200
C470        C  0.62261654  0.32408482  0.60814054    -0.08300
C471        C  0.63565591  0.33339634  0.57385679     0.62100
H472        H  0.56701611  0.27520570  0.59549169     0.12800
H473        H  0.65833062  0.34593581  0.68459940     0.12800
C474        C  0.58907841  0.29066060  0.70645149     0.62400
F475        F  0.60262054  0.31479401  0.55268949    -0.22800
F476        F  0.67865042  0.31257561  0.56756137    -0.20100
F477        F  0.63857286  0.38174096  0.56889837    -0.19800
F478        F  0.62742197  0.26906152  0.72061984    -0.19900
F479        F  0.54976311  0.26206349  0.71026519    -0.20200
F480        F  0.58068691  0.33325761  0.72192314    -0.22900
C481        C  0.56721482  0.12412059  0.53371516    -0.05700
C482        C  0.53688335  0.15630925  0.54913114     0.00200
C483        C  0.51100781  0.18889200  0.53008962    -0.08300
C484        C  0.51444708  0.18589981  0.49677569    -0.05700
C485        C  0.54098885  0.15091016  0.48112554     0.00200
C486        C  0.56924964  0.12032801  0.49993254    -0.08300
C487        C  0.59968719  0.08262335  0.48464147     0.62100
H488        H  0.58729114  0.09997205  0.54835786     0.12800
H489        H  0.49352226  0.20969626  0.48241370     0.12800
C490        C  0.47663138  0.22489692  0.54392122     0.62400
F491        F  0.62331224  0.05592220  0.50715094    -0.22800
F492        F  0.63294484  0.10395604  0.46538290    -0.20100
F493        F  0.57186949  0.05219191  0.46652228    -0.19800
F494        F  0.49577013  0.24761804  0.57021834    -0.19900
F495        F  0.43535732  0.20200223  0.55247251    -0.20200
F496        F  0.46524684  0.25971122  0.52211668    -0.22900
C497        C  0.33093822  0.63300819  0.61748729    -0.05700
C498        C  0.34182910  0.65193629  0.64753823     0.00200
C499        C  0.32386129  0.63013454  0.67511344    -0.08300
C500        C  0.28970073  0.59419037  0.67144080    -0.05700
C501        C  0.27496686  0.57809643  0.64120328     0.00200
C502        C  0.29780644  0.59610645  0.61382046    -0.08300
C503        C  0.28629885  0.57746502  0.58083647     0.62100
H504        H  0.34587620  0.64990265  0.59669125     0.12800
H505        H  0.27250597  0.58074760  0.69241181     0.12800
C506        C  0.33916291  0.64397283  0.70861251     0.62400
F507        F  0.31065857  0.60148284  0.55734948    -0.22800
F508        F  0.23869784  0.58201852  0.57456925    -0.20100
F509        F  0.29902071  0.53035950  0.57938078    -0.19800
F510        F  0.30102966  0.66161709  0.72521517    -0.19900
F511        F  0.37486368  0.67762854  0.70907168    -0.20200
F512        F  0.35573999  0.60415688  0.72403430    -0.22900
C513        C  0.39224489  0.73579794  0.53388879    -0.05700
C514        C  0.36040183  0.76690276  0.54840532     0.00200
C515        C  0.32620576  0.78967705  0.52926835    -0.08300
C516        C  0.32895484  0.78436014  0.49573773    -0.05700
C517        C  0.36554726  0.75845839  0.48110674     0.00200
C518        C  0.39740879  0.73269078  0.50086826    -0.08300
C519        C  0.43939985  0.70459314  0.48837769     0.62100
H520        H  0.41615214  0.71624689  0.54900445     0.12800
H521        H  0.30414433  0.80288249  0.48068405     0.12800
C522        C  0.28830136  0.82048937  0.54389710     0.62400
F523        F  0.46170396  0.67897342  0.51207325    -0.22800
F524        F  0.47248337  0.73534320  0.47578752    -0.20100
F525        F  0.42501302  0.67247087  0.46542793    -0.19800
F526        F  0.30895723  0.85811924  0.56015772    -0.19900
F527        F  0.26156597  0.79386672  0.56476286    -0.20200
F528        F  0.25820473  0.83869964  0.52103103    -0.22900
C529        C  0.40145457  0.95602862  0.63676895    -0.05700
C530        C  0.43531462  0.92019950  0.63240837     0.00200
C531        C  0.48307888  0.93365205  0.62720747    -0.08300
C532        C  0.49516500  0.98199343  0.62906896    -0.05700
C533        C  0.46165433  0.01765484  0.63485541     0.00200
C534        C  0.41344030  0.00454626  0.63759587    -0.08300
C535        C  0.37446193  0.04092555  0.64136801     0.62100
H536        H  0.36497260  0.94572855  0.63986801     0.12800
H537        H  0.53167897  0.99230551  0.62606781     0.12800
C538        C  0.52163692  0.89802339  0.61950500     0.62400
F539        F  0.33035990  0.01991598  0.64362678    -0.22800
F540        F  0.37378242  0.07027332  0.61508524    -0.20100
F541        F  0.38183814  0.06757211  0.66876602    -0.19800
F542        F  0.50867719  0.87134435  0.59304120    -0.19900
F543        F  0.52916531  0.86862429  0.64526584    -0.20200
F544        F  0.56418559  0.91993209  0.61260832    -0.22900
C545        C  0.58604270  0.65047668  0.84354583    -0.05700
C546        C  0.56864552  0.65994718  0.87408940     0.00200
C547        C  0.58249362  0.63105024  0.89986976    -0.08300
C548        C  0.61622730  0.59545091  0.89454695    -0.05700
C549        C  0.63809841  0.59040919  0.86481752     0.00200
C550        C  0.62140867  0.61664612  0.83849956    -0.08300
C551        C  0.64312877  0.61114495  0.80576147     0.62100
H552        H  0.57488644  0.67306842  0.82406547     0.12800
H553        H  0.62984523  0.57528196  0.91443735     0.12800
C554        C  0.56632027  0.64201209  0.93340846     0.62400
F555        F  0.61731514  0.63454117  0.78267198    -0.22800
F556        F  0.64485265  0.56361861  0.79745854    -0.20100
F557        F  0.68824884  0.62986409  0.80603448    -0.19800
F558        F  0.51758757  0.64173927  0.93460466    -0.19900
F559        F  0.58325724  0.68624368  0.94225620    -0.20200
F560        F  0.58282790  0.60932200  0.95512332    -0.22900
C561        C  0.41933754  0.79712085  0.79174725    -0.05700
C562        C  0.46844510  0.79413827  0.79668540     0.00200
C563        C  0.49861350  0.79230793  0.76986339    -0.08300
C564        C  0.47832168  0.79359787  0.73930496    -0.05700
C565        C  0.42919936  0.79497319  0.73424455     0.00200
C566        C  0.39896372  0.79744863  0.76102787    -0.08300
C567        C  0.34565488  0.79959086  0.75762855     0.62100
H568        H  0.39670340  0.79903941  0.81241321     0.12800
H569        H  0.50124871  0.79274953  0.71877044     0.12800
C570        C  0.55174345  0.78659643  0.77293617     0.62400
F571        F  0.32330997  0.79901016  0.78690011    -0.22800
F572        F  0.32946385  0.76093025  0.74023212    -0.20100
F573        F  0.33306823  0.84098823  0.74238191    -0.19800
F574        F  0.56161863  0.74687484  0.79082112    -0.19900
F575        F  0.57139800  0.82629224  0.78737163    -0.20200
F576        F  0.57324308  0.78088624  0.74359783    -0.22900
C577        C  0.32435609  0.30843480  0.89991682    -0.05700
C578        C  0.33178457  0.28007139  0.87287627     0.00200
C579        C  0.30659268  0.29010137  0.84456644    -0.08300
C580        C  0.26799618  0.32084025  0.84612336    -0.05700
C581        C  0.25625293  0.34442845  0.87449581     0.00200
C582        C  0.28659086  0.34072297  0.90130533    -0.08300
C583        C  0.27717795  0.36794329  0.93185779     0.62100
H584        H  0.34558403  0.30197324  0.92088163     0.12800
H585        H  0.24611417  0.32560174  0.82511997     0.12800
C586        C  0.31948751  0.26966586  0.81235084     0.62400
F587        F  0.31007050  0.35786930  0.95529905    -0.22800
F588        F  0.23299903  0.35629946  0.94332556    -0.20100
F589        F  0.27927870  0.41607379  0.92593487    -0.19800
F590        F  0.28388213  0.23973755  0.80172157    -0.19900
F591        F  0.36156194  0.24512710  0.81326806    -0.20200
F592        F  0.32460087  0.30629926  0.79081812    -0.22900
C593        C  0.42953752  0.13630077  0.74178283    -0.05700
C594        C  0.47845360  0.14186748  0.73767561     0.00200
C595        C  0.50779560  0.14305191  0.76510549    -0.08300
C596        C  0.48640592  0.14478809  0.79550326    -0.05700
C597        C  0.43709711  0.14091714  0.79955292     0.00200
C598        C  0.40842664  0.13364610  0.77200630    -0.08300
C599        C  0.35600580  0.12223347  0.77385003     0.62100
H600        H  0.40763612  0.13304569  0.72067436     0.12800
H601        H  0.50843223  0.14801434  0.81655298     0.12800
C602        C  0.56106741  0.14116240  0.76255976     0.62400
F603        F  0.33570406  0.11635525  0.74399374    -0.22800
F604        F  0.33240732  0.15848533  0.78907740    -0.20100
F605        F  0.34953337  0.08034148  0.79026959    -0.19800
F606        F  0.57751176  0.17848286  0.74448985    -0.19900
F607        F  0.57381950  0.09874026  0.74836476    -0.20200
F608        F  0.58279568  0.14363916  0.79216246    -0.22900
C609        C  0.40071910  0.98147903  0.90220011    -0.05700
C610        C  0.43479604  0.01807609  0.90405266     0.00200
C611        C  0.48309457  0.00553694  0.90690474    -0.08300
C612        C  0.49516281  0.95719934  0.90547683    -0.05700
C613        C  0.46121267  0.92087960  0.90171085     0.00200
C614        C  0.41280106  0.93317220  0.90099019    -0.08300
C615        C  0.37374696  0.89614798  0.89818905     0.62100
H616        H  0.36386837  0.99104567  0.90102009     0.12800
H617        H  0.53194551  0.94735970  0.90690575     0.12800
C618        C  0.52218250  0.04222450  0.91113279     0.62400
F619        F  0.32944577  0.91645732  0.89678991    -0.22800
F620        F  0.37477414  0.86691310  0.92451206    -0.20100
F621        F  0.37957807  0.86944341  0.87071190    -0.19800
F622        F  0.51437477  0.06840509  0.93858357    -0.19900
F623        F  0.52350877  0.07196455  0.88507910    -0.20200
F624        F  0.56617745  0.02151888  0.91398229    -0.22900
C625        C  0.55748077  0.62526725  0.13523240    -0.05700
C626        C  0.56707027  0.66464267  0.15510152     0.00200
C627        C  0.60740831  0.66339912  0.17505308    -0.08300
C628        C  0.64267827  0.63075406  0.16819066    -0.05700
C629        C  0.63664149  0.59523895  0.14495542     0.00200
C630        C  0.59112057  0.58868369  0.13125610    -0.08300
C631        C  0.57819256  0.54419273  0.11276736     0.62100
H632        H  0.52509656  0.62467344  0.12144492     0.12800
H633        H  0.67583762  0.63364717  0.18105674     0.12800
C634        C  0.61573435  0.69662116  0.20311465     0.62400
F635        F  0.53095209  0.54343216  0.10426180    -0.22800
F636        F  0.58682699  0.50487207  0.13140911    -0.20100
F637        F  0.60456764  0.54129019  0.08539281    -0.19800
F638        F  0.57547817  0.72085135  0.21168261    -0.19900
F639        F  0.65106213  0.72868085  0.19570401    -0.20200
F640        F  0.62973890  0.67059667  0.22930810    -0.22900
C641        C  0.41072394  0.78118548  0.23577333    -0.05700
C642        C  0.45751476  0.79722775  0.23105549     0.00200
C643        C  0.48370664  0.81332654  0.25810663    -0.08300
C644        C  0.46375503  0.80809501  0.28862937    -0.05700
C645        C  0.41831068  0.78921219  0.29325773     0.00200
C646        C  0.39043040  0.77743392  0.26629093    -0.08300
C647        C  0.34023184  0.75930824  0.26961102     0.62100
H648        H  0.38990557  0.77069823  0.21520304     0.12800
H649        H  0.48398610  0.81836467  0.30954669     0.12800
C650        C  0.53233593  0.83587922  0.25541561     0.62400
F651        F  0.32005650  0.74792068  0.24040102    -0.22800
F652        F  0.31272490  0.79375585  0.28380232    -0.20100
F653        F  0.33987505  0.71901330  0.28810859    -0.19800
F654        F  0.53011235  0.87510935  0.23586025    -0.19900
F655        F  0.56385963  0.80349536  0.24311379    -0.20200
F656        F  0.54971031  0.85092804  0.28471032    -0.22900
C657        C  0.53829005  0.74353298  0.99727703    -0.05700
C658        C  0.54841100  0.78578162  0.98120819     0.00200
C659        C  0.56182460  0.82672368  0.99894885    -0.08300
C660        C  0.56052652  0.82472969  0.03256272    -0.05700
C661        C  0.54626406  0.78332940  0.04834939     0.00200
C662        C  0.53847402  0.74111443  0.03058912    -0.08300
C663        C  0.53114713  0.69343184  0.04662737     0.62100
H664        H  0.52782481  0.71261420  0.98352284     0.12800
H665        H  0.56777234  0.85625072  0.04667261     0.12800
C666        C  0.57433995  0.87288020  0.98256458     0.62400
F667        F  0.53272838  0.65630350  0.02487967    -0.22800
F668        F  0.48785096  0.69166284  0.06152541    -0.20100
F669        F  0.56652130  0.68646772  0.06889949    -0.19800
F670        F  0.53721334  0.88718281  0.96349941    -0.19900
F671        F  0.61393735  0.86641675  0.96396584    -0.20200
F672        F  0.58394480  0.90891318  0.00427293    -0.22900
C673        C  0.32018291  0.30958335  0.12417648    -0.05700
C674        C  0.32153520  0.28075979  0.15137550     0.00200
C675        C  0.29043154  0.29082121  0.17677182    -0.08300
C676        C  0.25268819  0.32161189  0.17150684    -0.05700
C677        C  0.24711347  0.34561951  0.14259338     0.00200
C678        C  0.28376199  0.34320920  0.11972171    -0.08300
C679        C  0.28375513  0.37466978  0.09060629     0.62100
H680        H  0.34519576  0.30274567  0.10529338     0.12800
H681        H  0.22568091  0.32493608  0.18960344     0.12800
C682        C  0.29319254  0.26551020  0.20838219     0.62400
F683        F  0.32182785  0.36543417  0.07101985    -0.22800
F684        F  0.28632585  0.42159608  0.10024491    -0.20100
F685        F  0.24306818  0.36793278  0.07300906    -0.19800
F686        F  0.33851689  0.24978243  0.21427153    -0.19900
F687        F  0.26223225  0.22742281  0.20812092    -0.20200
F688        F  0.28103158  0.29601036  0.23296156    -0.22900
C689        C  0.46997991  0.13403161  0.23686303    -0.05700
C690        C  0.42043800  0.13595423  0.23294826     0.00200
C691        C  0.39194185  0.13089588  0.26052833    -0.08300
C692        C  0.41406518  0.12784457  0.29066228    -0.05700
C693        C  0.46346559  0.12816327  0.29470265     0.00200
C694        C  0.49202136  0.12945994  0.26706679    -0.08300
C695        C  0.54539732  0.12687812  0.26924194     0.62100
H696        H  0.49173796  0.13611580  0.21579559     0.12800
H697        H  0.39240899  0.12526888  0.31175576     0.12800
C698        C  0.33842768  0.12909006  0.25878587     0.62400
F699        F  0.56635321  0.12909649  0.23955357    -0.22800
F700        F  0.55841015  0.08446860  0.28303255    -0.20100
F701        F  0.56253942  0.16430843  0.28743368    -0.19800
F702        F  0.32409827  0.08941937  0.24169616    -0.19900
F703        F  0.32162499  0.16934702  0.24425759    -0.20200
F704        F  0.31807210  0.12665760  0.28866473    -0.22900
C705        C  0.33922476  0.19565897  0.03274231    -0.05700
C706        C  0.33742974  0.15170834  0.04813026     0.00200
C707        C  0.33271147  0.10967275  0.02958617    -0.08300
C708        C  0.33388222  0.11296241  0.99599797    -0.05700
C709        C  0.34038626  0.15667514  0.98077296     0.00200
C710        C  0.34023500  0.19889759  0.99927054    -0.08300
C711        C  0.34083594  0.24711903  0.98361459     0.62100
H712        H  0.34217306  0.22748796  0.04726299     0.12800
H713        H  0.33369632  0.08103253  0.98148420     0.12800
C714        C  0.33062078  0.06136467  0.04516096     0.62400
F715        F  0.33449694  0.28342116  0.00555547    -0.22800
F716        F  0.30456161  0.24917968  0.96152524    -0.20100
F717        F  0.38345313  0.25448689  0.96855079    -0.19800
F718        F  0.29418503  0.06001685  0.06691177    -0.19900
F719        F  0.37278152  0.05273931  0.06069265    -0.20200
F720        F  0.32300577  0.02542130  0.02303281    -0.22900
C721        C  0.41194740  0.93032758  0.14684487    -0.05700
C722        C  0.44998699  0.91977204  0.12715335     0.00200
C723        C  0.47053941  0.95564354  0.10822616    -0.08300
C724        C  0.45329253  0.00217807  0.11087086    -0.05700
C725        C  0.41615304  0.01341342  0.13156513     0.00200
C726        C  0.39442235  0.97657140  0.14961868    -0.08300
C727        C  0.35388684  0.98535752  0.17256977     0.62100
H728        H  0.39710230  0.90198389  0.16098789     0.12800
H729        H  0.46891183  0.03022371  0.09685146     0.12800
C730        C  0.50961732  0.94443244  0.08482328     0.62400
F731        F  0.34295760  0.94549999  0.19022894    -0.22800
F732        F  0.31382468  0.99762353  0.15566262    -0.20100
F733        F  0.36580600  0.02121016  0.19384905    -0.19800
F734        F  0.49608541  0.90649298  0.06574259    -0.19900
F735        F  0.55047696  0.93310769  0.10110166    -0.20200
F736        F  0.51938415  0.98247014  0.06519046    -0.22900
loop_ 
_geom_bond_atom_site_label_1 
_geom_bond_atom_site_label_2 
_geom_bond_distance 
_geom_bond_site_symmetry_2 
_ccdc_geom_bond_type 
O1            V9   1.928       .  S
O1           C11   1.270       .  A
O2            V9   1.919       .  S
O2           C12   1.271       .  A
O3            V9   1.894       .  S
O3           C13   1.262       .  A
O4            V9   1.903       .  S
O4           C14   1.265       .  A
O5           V10   1.924       .  S
O5           C14   1.271       .  A
O6           V10   1.922       .  S
O6           C13   1.269       .  A
O7           V10   1.872       .  S
O7           C12   1.254       .  A
O8           V10   1.882       .  S
O8           C11   1.260       .  A
V9           V10   2.083       .  T
C11         C674   1.485       .  S
C12         C725   1.484       .  S
C13         C706   1.485       .  S
C14         C690   1.511       .  S
O15          V23   1.920       .  S
O15          C25   1.268       .  A
O16          V23   1.909       .  S
O16          C26   1.267       .  A
O17          V23   1.885       .  S
O17          C27   1.260       .  A
O18          V23   1.891       .  S
O18          C28   1.263       .  A
O19          V24   1.920       .  S
O19          C28   1.269       .  A
O20          V24   1.915       .  S
O20          C27   1.267       .  A
O21          V24   1.881       .  S
O21          C26   1.257       .  A
O22          V24   1.878       .  S
O22          C25   1.261       .  A
V23          V24   2.085       .  T
C25         C626   1.484       .  S
C26         C722   1.468       .  S
C27         C661   1.477       .  S
C28         C642   1.505       .  S
O29          V37   1.916       .  S
O29          C39   1.267       .  A
O30          V37   1.914       .  S
O30          C40   1.268       .  A
O31          V37   1.904       .  S
O31          C41   1.266       .  A
O32          V37   1.899       .  S
O32          C42   1.264       .  A
O33          V38   1.920       .  S
O33          C42   1.268       .  A
O34          V38   1.907       .  S
O34          C41   1.266       .  A
O35          V38   1.885       .  S
O35          C40   1.262       .  A
O36          V38   1.891       .  S
O36          C39   1.262       .  A
V37          V38   2.083       .  T
C39         C578   1.478       .  S
C40         C610   1.497       .  S
C41         C597   1.502       .  S
C42         C709   1.487       .  S
O43          V51   1.913       .  S
O43          C53   1.266       .  A
O44          V51   1.909       .  S
O44          C54   1.267       .  A
O45          V51   1.891       .  S
O45          C55   1.263       .  A
O46          V51   1.886       .  S
O46          C56   1.262       .  A
O47          V52   1.915       .  S
O47          C56   1.267       .  A
O48          V52   1.908       .  S
O48          C55   1.266       .  A
O49          V52   1.885       .  S
O49          C54   1.262       .  A
O50          V52   1.887       .  S
O50          C53   1.261       .  A
V51          V52   2.085       .  T
C53         C546   1.474       .  S
C54         C613   1.492       .  S
C55         C562   1.490       .  S
C56         C658   1.480       .  S
O57          V65   1.901       .  S
O57          C67   1.263       .  A
O58          V65   1.897       .  S
O58          C68   1.263       .  A
O59          V65   1.878       .  S
O59          C69   1.261       .  A
O60          V65   1.870       .  S
O60          C70   1.261       .  A
O61          V66   1.923       .  S
O61          C70   1.268       .  A
O62          V66   1.917       .  S
O62          C69   1.268       .  A
O63          V66   1.895       .  S
O63          C68   1.265       .  A
O64          V66   1.891       .  S
O64          C67   1.262       .  A
V65          V66   2.081       .  T
C67         C498   1.465       .  S
C68         C530   1.494       .  S
C69         C565   1.492       .  S
C70         C514   1.489       .  S
O71          V79   1.914       .  S
O71          C81   1.267       .  A
O72          V79   1.907       .  S
O72          C82   1.266       .  A
O73          V79   1.887       .  S
O73          C83   1.262       .  A
O74          V79   1.883       .  S
O74          C84   1.259       .  A
O75          V80   1.935       .  S
O75          C84   1.274       .  A
O76          V80   1.930       .  S
O76          C83   1.271       .  A
O77          V80   1.885       .  S
O77          C82   1.262       .  A
O78          V80   1.889       .  S
O78          C81   1.261       .  A
V79          V80   2.079       .  T
C81         C466   1.474       .  S
C82         C533   1.493       .  S
C83         C594   1.498       .  S
C84         C482   1.501       .  S
O85          V93   1.928       .  S
O85          C95   1.269       .  A
O86          V93   1.917       .  S
O86          C96   1.269       .  A
O87          V93   1.877       .  S
O87          C97   1.257       .  A
O88          V93   1.890       .  S
O88          C98   1.262       .  A
O89          V94   1.923       .  S
O89          C98   1.270       .  A
O90          V94   1.922       .  S
O90          C97   1.270       .  A
O91          V94   1.899       .  S
O91          C96   1.264       .  A
O92          V94   1.897       .  S
O92          C95   1.263       .  A
V93          V94   2.081       .  T
C95         C434   1.490       .  S
C96         C450   1.507       .  S
C97         C517   1.495       .  S
C98         C645   1.492       .  S
O99         V107   1.932       .  S
O99         C109   1.272       .  A
O100        V107   1.928       .  S
O100        C110   1.272       .  A
O101        V107   1.881       .  S
O101        C111   1.261       .  A
O102        V107   1.886       .  S
O102        C112   1.261       .  A
O103        V108   1.934       .  S
O103        C112   1.274       .  A
O104        V108   1.940       .  S
O104        C111   1.274       .  A
O105        V108   1.887       .  S
O105        C110   1.262       .  A
O106        V108   1.888       .  S
O106        C109   1.260       .  A
V107        V108   2.080       .  T
C109        C418   1.490       .  S
C110        C453   1.509       .  S
C111        C485   1.505       .  S
C112        C693   1.506       .  S
O113        V121   1.926       .  S
O113        C123   1.269       .  A
O114        V121   1.917       .  S
O114        C124   1.270       .  A
O115        V121   1.888       .  S
O115        C125   1.259       .  A
O116        V121   1.884       .  S
O116        C126   1.261       .  A
O117        V122   1.927       .  S
O117        C126   1.269       .  A
O118        V122   1.925       .  S
O118        C125   1.272       .  A
O119        V122   1.890       .  S
O119        C124   1.260       .  A
O120        V122   1.888       .  S
O120        C123   1.263       .  A
V121        V122   2.083       .  T
C123        C677   1.488       .  S
C124        C402   1.492   1_455  S
C125        C373   1.504       .  S
C126        C386   1.482       .  S
O127        V135   1.922       .  S
O127        C137   1.267       .  A
O128        V135   1.914       .  S
O128        C138   1.268       .  A
O129        V135   1.899       .  S
O129        C139   1.264       .  A
O130        V135   1.901       .  S
O130        C140   1.264       .  A
O131        V136   1.921       .  S
O131        C140   1.268       .  A
O132        V136   1.918       .  S
O132        C139   1.268       .  A
O133        V136   1.887       .  S
O133        C138   1.259       .  A
O134        V136   1.882       .  S
O134        C137   1.263       .  A
V135        V136   2.085       .  T
C137        C629   1.490       .  S
C138        C405   1.476       .  S
C139        C338   1.493       .  S
C140        C354   1.493       .  S
O141        V149   1.911       .  S
O141        C151   1.266       .  A
O142        V149   1.903       .  S
O142        C152   1.265       .  A
O143        V149   1.896       .  S
O143        C153   1.263       .  A
O144        V149   1.902       .  S
O144        C154   1.264       .  A
O145        V150   1.911       .  S
O145        C154   1.267       .  A
O146        V150   1.920       .  S
O146        C153   1.268       .  A
O147        V150   1.884       .  S
O147        C152   1.261       .  A
O148        V150   1.890       .  S
O148        C151   1.262       .  A
V149        V150   2.085       .  T
C151        C581   1.479       .  S
C152        C325   1.482   1_455  S
C153        C389   1.484       .  S
C154        C306   1.492       .  S
O155        V163   1.911       .  S
O155        C165   1.266       .  A
O156        V163   1.905       .  S
O156        C166   1.265       .  A
O157        V163   1.893       .  S
O157        C167   1.262       .  A
O158        V163   1.899       .  S
O158        C168   1.265       .  A
O159        V164   1.924       .  S
O159        C168   1.270       .  A
O160        V164   1.925       .  S
O160        C167   1.269       .  A
O161        V164   1.883       .  S
O161        C166   1.261       .  A
O162        V164   1.887       .  S
O162        C165   1.261       .  A
V163        V164   2.083       .  T
C165        C549   1.473       .  S
C166        C322   1.492       .  S
C167        C357   1.487       .  S
C168        C293   1.511       .  S
O169        V177   1.921       .  S
O169        C179   1.269       .  A
O170        V177   1.914       .  S
O170        C180   1.269       .  A
O171        V177   1.890       .  S
O171        C181   1.261       .  A
O172        V177   1.893       .  S
O172        C182   1.263       .  A
O173        V178   1.930       .  S
O173        C182   1.272       .  A
O174        V178   1.931       .  S
O174        C181   1.271       .  A
O175        V178   1.883       .  S
O175        C180   1.259       .  A
O176        V178   1.890       .  S
O176        C179   1.260       .  A
V177        V178   2.084       .  T
C179        C469   1.479       .  S
C180        C274   1.485       .  S
C181        C258   1.489       .  S
C182        C290   1.506       .  S
O183        V191   1.929       .  S
O183        C193   1.271       .  A
O184        V191   1.919       .  S
O184        C194   1.270       .  A
O185        V191   1.879       .  S
O185        C195   1.257       .  A
O186        V191   1.887       .  S
O186        C196   1.259       .  A
O187        V192   1.923       .  S
O187        C196   1.270       .  A
O188        V192   1.926       .  S
O188        C195   1.272       .  A
O189        V192   1.881       .  S
O189        C194   1.260       .  A
O190        V192   1.886       .  S
O190        C193   1.259       .  A
V191        V192   2.082       .  T
C193        C501   1.482       .  S
C194        C277   1.497       .  S
C195        C242   1.497       .  S
C196        C309   1.479       .  S
O197        V205   1.923       .  S
O197        C207   1.269       .  A
O198        V205   1.915       .  S
O198        C208   1.268       .  A
O199        V205   1.898       .  S
O199        C209   1.265       .  A
O200        V205   1.894       .  S
O200        C210   1.262       .  A
O201        V206   1.925       .  S
O201        C210   1.269       .  A
O202        V206   1.921       .  S
O202        C209   1.269       .  A
O203        V206   1.887       .  S
O203        C208   1.261       .  A
O204        V206   1.898       .  S
O204        C207   1.263       .  A
V205        V206   2.083       .  T
C207        C421   1.492       .  S
C208        C226   1.481       .  S
C209        C341   1.509       .  S
C210        C261   1.488       .  S
O211        V219   1.928       .  S
O211        C221   1.271       .  A
O212        V219   1.918       .  S
O212        C222   1.270       .  A
O213        V219   1.885       .  S
O213        C223   1.258       .  A
O214        V219   1.874       .  S
O214        C224   1.260       .  A
O215        V220   1.932       .  S
O215        C224   1.271       .  A
O216        V220   1.923       .  S
O216        C223   1.271       .  A
O217        V220   1.885       .  S
O217        C222   1.260       .  A
O218        V220   1.888       .  S
O218        C221   1.260       .  A
V219        V220   2.081       .  T
C221        C437   1.484       .  S
C222        C229   1.492   1_455  S
C223        C370   1.483       .  S
C224        C245   1.495       .  S
C225        C226   1.405       .  A
C225        C230   1.409       .  A
C225        H232   1.084       .  S
C226        C227   1.413       .  A
C227        C228   1.408       .  A
C227        C234   1.520       .  S
C228        C229   1.412       .  A
C228        H233   1.083       .  S
C229        C230   1.418       .  A
C230        C231   1.518   1_655  S
C231        F235   1.385   1_455  S
C231        F236   1.384       .  S
C231        F237   1.383       .  S
C234        F238   1.382       .  S
C234        F239   1.384       .  S
C234        F240   1.385       .  S
C241        C242   1.410       .  A
C241        C246   1.418       .  A
C241        H248   1.082       .  S
C242        C243   1.428       .  A
C243        C244   1.401       .  A
C243        C250   1.526       .  S
C244        C245   1.403       .  A
C244        H249   1.083       .  S
C245        C246   1.418       .  A
C246        C247   1.515       .  S
C247        F251   1.385       .  S
C247        F252   1.384       .  S
C247        F253   1.382       .  S
C250        F254   1.383       .  S
C250        F255   1.376       .  S
C250        F256   1.385       .  S
C257        C258   1.401       .  A
C257        C262   1.403       .  A
C257        H264   1.078       .  S
C258        C259   1.419       .  A
C259        C260   1.420       .  A
C259        C266   1.516       .  S
C260        C261   1.409       .  A
C260        H265   1.083       .  S
C261        C262   1.414       .  A
C262        C263   1.516       .  S
C263        F267   1.385       .  S
C263        F268   1.382       .  S
C263        F269   1.382       .  S
C266        F270   1.382       .  S
C266        F271   1.383       .  S
C266        F272   1.385       .  S
C273        C274   1.407       .  A
C273        C278   1.410       .  A
C273        H280   1.083       .  S
C274        C275   1.414       .  A
C275        C276   1.406       .  A
C275        C282   1.520       .  S
C276        C277   1.412   1_655  A
C276        H281   1.082       .  S
C277        C278   1.420   1_455  A
C278        C279   1.519   1_655  S
C279        F283   1.385       .  S
C279        F284   1.383       .  S
C279        F285   1.384       .  S
C282        F286   1.382       .  S
C282        F287   1.383       .  S
C282        F288   1.384       .  S
C289        C290   1.411       .  A
C289        C294   1.414       .  A
C289        H296   1.082       .  S
C290        C291   1.418       .  A
C291        C292   1.414       .  A
C291        C298   1.518       .  S
C292        C293   1.413       .  A
C292        H297   1.082       .  S
C293        C294   1.424       .  A
C294        C295   1.520       .  S
C295        F299   1.385       .  S
C295        F300   1.383       .  S
C295        F301   1.380       .  S
C298        F302   1.383       .  S
C298        F303   1.382       .  S
C298        F304   1.385       .  S
C305        C306   1.408       .  A
C305        C310   1.410       .  A
C305        H312   1.083       .  S
C306        C307   1.423       .  A
C307        C308   1.410       .  A
C307        C314   1.519       .  S
C308        C309   1.400       .  A
C308        H313   1.084       .  S
C309        C310   1.412       .  A
C310        C311   1.512       .  S
C311        F315   1.384       .  S
C311        F316   1.384       .  S
C311        F317   1.383       .  S
C314        F318   1.383       .  S
C314        F319   1.382       .  S
C314        F320   1.385       .  S
C321        C322   1.411       .  A
C321        C326   1.405       .  A
C321        H328   1.082       .  S
C322        C323   1.421       .  A
C323        C324   1.405       .  A
C323        C330   1.521       .  S
C324        C325   1.405       .  A
C324        H329   1.082       .  S
C325        C326   1.415       .  A
C326        C327   1.522   1_655  S
C327        F331   1.385       .  S
C327        F332   1.384       .  S
C327        F333   1.383       .  S
C330        F334   1.384       .  S
C330        F335   1.383       .  S
C330        F336   1.385       .  S
C337        C338   1.405       .  A
C337        C342   1.413       .  A
C337        H344   1.083       .  S
C338        C339   1.416       .  A
C339        C340   1.412       .  A
C339        C346   1.519       .  S
C340        C341   1.414       .  A
C340        H345   1.082       .  S
C341        C342   1.425       .  A
C342        C343   1.518       .  S
C343        F347   1.385       .  S
C343        F348   1.382       .  S
C343        F349   1.383       .  S
C346        F350   1.382       .  S
C346        F351   1.382       .  S
C346        F352   1.385       .  S
C353        C354   1.406       .  A
C353        C358   1.416   1_554  A
C353        H360   1.080       .  S
C354        C355   1.418       .  A
C355        C356   1.408   1_554  A
C355        C362   1.514       .  S
C356        C357   1.402       .  A
C356        H361   1.085       .  S
C357        C358   1.418       .  A
C358        C359   1.516       .  S
C359        F363   1.385       .  S
C359        F364   1.382       .  S
C359        F365   1.383       .  S
C362        F366   1.384       .  S
C362        F367   1.381       .  S
C362        F368   1.383       .  S
C369        C370   1.394       .  A
C369        C374   1.409       .  A
C369        H376   1.082       .  S
C370        C371   1.420       .  A
C371        C372   1.413       .  A
C371        C378   1.522       .  S
C372        C373   1.408       .  A
C372        H377   1.083       .  S
C373        C374   1.432       .  A
C374        C375   1.521       .  S
C375        F379   1.385       .  S
C375        F380   1.383       .  S
C375        F381   1.384       .  S
C378        F382   1.383       .  S
C378        F383   1.382       .  S
C378        F384   1.385       .  S
C385        C386   1.401       .  A
C385        C390   1.403   1_554  A
C385        H392   1.082       .  S
C386        C387   1.415       .  A
C387        C388   1.417   1_554  A
C387        C394   1.514       .  S
C388        C389   1.407       .  A
C388        H393   1.084       .  S
C389        C390   1.417       .  A
C390        C391   1.518       .  S
C391        F395   1.385       .  S
C391        F396   1.382       .  S
C391        F397   1.381       .  S
C394        F398   1.382       .  S
C394        F399   1.378       .  S
C394        F400   1.384       .  S
C401        C402   1.407       .  A
C401        C406   1.409       .  A
C401        H408   1.082       .  S
C402        C403   1.427       .  A
C403        C404   1.408       .  A
C403        C410   1.521       .  S
C404        C405   1.398       .  A
C404        H409   1.083       .  S
C405        C406   1.413       .  A
C406        C407   1.516       .  S
C407        F411   1.384       .  S
C407        F412   1.382       .  S
C407        F413   1.383       .  S
C410        F414   1.384       .  S
C410        F415   1.383       .  S
C410        F416   1.385       .  S
C417        C418   1.406       .  A
C417        C422   1.409       .  A
C417        H424   1.079       .  S
C418        C419   1.416       .  A
C419        C420   1.414       .  A
C419        C426   1.514       .  S
C420        C421   1.405       .  A
C420        H425   1.087       .  S
C421        C422   1.418       .  A
C422        C423   1.518       .  S
C423        F427   1.385       .  S
C423        F428   1.381       .  S
C423        F429   1.384       .  S
C426        F430   1.382       .  S
C426        F431   1.383       .  S
C426        F432   1.384       .  S
C433        C434   1.400       .  A
C433        C438   1.404       .  A
C433        H440   1.081       .  S
C434        C435   1.421       .  A
C435        C436   1.415       .  A
C435        C442   1.510       .  S
C436        C437   1.403       .  A
C436        H441   1.083       .  S
C437        C438   1.417       .  A
C438        C439   1.513       .  S
C439        F443   1.385       .  S
C439        F444   1.382       .  S
C439        F445   1.383       .  S
C442        F446   1.382       .  S
C442        F447   1.382       .  S
C442        F448   1.385       .  S
C449        C450   1.413       .  A
C449        C454   1.415       .  A
C449        H456   1.082       .  S
C450        C451   1.421       .  A
C451        C452   1.411       .  A
C451        C458   1.521       .  S
C452        C453   1.412   1_565  A
C452        H457   1.081       .  S
C453        C454   1.421   1_545  A
C454        C455   1.518   1_565  S
C455        F459   1.385       .  S
C455        F460   1.383       .  S
C455        F461   1.384       .  S
C458        F462   1.383       .  S
C458        F463   1.384       .  S
C458        F464   1.385       .  S
C465        C466   1.401       .  A
C465        C470   1.405       .  A
C465        H472   1.079       .  S
C466        C467   1.415       .  A
C467        C468   1.407       .  A
C467        C474   1.514       .  S
C468        C469   1.403       .  A
C468        H473   1.084       .  S
C469        C470   1.415       .  A
C470        C471   1.511       .  S
C471        F475   1.386       .  S
C471        F476   1.382       .  S
C471        F477   1.382       .  S
C474        F478   1.383       .  S
C474        F479   1.383       .  S
C474        F480   1.384       .  S
C481        C482   1.410       .  A
C481        C486   1.422       .  A
C481        H488   1.083       .  S
C482        C483   1.426       .  A
C483        C484   1.404       .  A
C483        C490   1.525       .  S
C484        C485   1.405       .  A
C484        H489   1.083       .  S
C485        C486   1.421       .  A
C486        C487   1.514       .  S
C487        F491   1.385       .  S
C487        F492   1.383       .  S
C487        F493   1.383       .  S
C490        F494   1.379       .  S
C490        F495   1.383       .  S
C490        F496   1.385       .  S
C497        C498   1.398       .  A
C497        C502   1.405       .  A
C497        H504   1.084       .  S
C498        C499   1.410       .  A
C499        C500   1.405       .  A
C499        C506   1.517       .  S
C500        C501   1.405       .  A
C500        H505   1.078       .  S
C501        C502   1.417       .  A
C502        C503   1.510       .  S
C503        F507   1.385       .  S
C503        F508   1.381       .  S
C503        F509   1.379       .  S
C506        F510   1.382       .  S
C506        F511   1.383       .  S
C506        F512   1.383       .  S
C513        C514   1.401       .  A
C513        C518   1.396       .  A
C513        H520   1.082       .  S
C514        C515   1.416       .  A
C515        C516   1.416       .  A
C515        C522   1.515       .  S
C516        C517   1.413       .  A
C516        H521   1.082       .  S
C517        C518   1.428       .  A
C518        C519   1.527       .  S
C519        F523   1.385       .  S
C519        F524   1.383       .  S
C519        F525   1.376       .  S
C522        F526   1.383       .  S
C522        F527   1.383       .  S
C522        F528   1.384       .  S
C529        C530   1.409       .  A
C529        C534   1.408   1_565  A
C529        H536   1.081       .  S
C530        C531   1.423       .  A
C531        C532   1.405       .  A
C531        C538   1.523       .  S
C532        C533   1.408   1_565  A
C532        H537   1.082       .  S
C533        C534   1.419       .  A
C534        C535   1.520       .  S
C535        F539   1.385       .  S
C535        F540   1.384       .  S
C535        F541   1.383       .  S
C538        F542   1.384       .  S
C538        F543   1.383       .  S
C538        F544   1.385       .  S
C545        C546   1.400       .  A
C545        C550   1.404       .  A
C545        H552   1.087       .  S
C546        C547   1.414       .  A
C547        C548   1.408       .  A
C547        C554   1.513       .  S
C548        C549   1.403       .  A
C548        H553   1.084       .  S
C549        C550   1.415       .  A
C550        C551   1.516       .  S
C551        F555   1.385       .  S
C551        F556   1.383       .  S
C551        F557   1.381       .  S
C554        F558   1.383       .  S
C554        F559   1.381       .  S
C554        F560   1.383       .  S
C561        C562   1.410       .  A
C561        C566   1.410       .  A
C561        H568   1.083       .  S
C562        C563   1.418       .  A
C563        C564   1.404       .  A
C563        C570   1.521       .  S
C564        C565   1.409       .  A
C564        H569   1.082       .  S
C565        C566   1.418       .  A
C566        C567   1.519       .  S
C567        F571   1.385       .  S
C567        F572   1.383       .  S
C567        F573   1.383       .  S
C570        F574   1.382       .  S
C570        F575   1.382       .  S
C570        F576   1.385       .  S
C577        C578   1.401       .  A
C577        C582   1.411       .  A
C577        H584   1.081       .  S
C578        C579   1.414       .  A
C579        C580   1.401       .  A
C579        C586   1.513       .  S
C580        C581   1.402       .  A
C580        H585   1.085       .  S
C581        C582   1.418       .  A
C582        C583   1.515       .  S
C583        F587   1.384       .  S
C583        F588   1.383       .  S
C583        F589   1.382       .  S
C586        F590   1.382       .  S
C586        F591   1.383       .  S
C586        F592   1.385       .  S
C593        C594   1.406       .  A
C593        C598   1.407       .  A
C593        H600   1.082       .  S
C594        C595   1.417       .  A
C595        C596   1.416       .  A
C595        C602   1.516       .  S
C596        C597   1.413       .  A
C596        H601   1.082       .  S
C597        C598   1.423       .  A
C598        C599   1.521       .  S
C599        F603   1.385       .  S
C599        F604   1.380       .  S
C599        F605   1.383       .  S
C602        F606   1.382       .  S
C602        F607   1.383       .  S
C602        F608   1.385       .  S
C609        C610   1.411   1_565  A
C609        C614   1.407       .  A
C609        H616   1.082       .  S
C610        C611   1.421       .  A
C611        C612   1.408   1_545  A
C611        C618   1.520       .  S
C612        C613   1.409       .  A
C612        H617   1.082       .  S
C613        C614   1.418       .  A
C614        C615   1.521       .  S
C615        F619   1.385       .  S
C615        F620   1.383       .  S
C615        F621   1.384       .  S
C618        F622   1.383       .  S
C618        F623   1.383       .  S
C618        F624   1.385       .  S
C625        C626   1.408       .  A
C625        C630   1.418       .  A
C625        H632   1.083       .  S
C626        C627   1.415       .  A
C627        C628   1.393       .  A
C627        C634   1.516       .  S
C628        C629   1.402       .  A
C628        H633   1.084       .  S
C629        C630   1.421       .  A
C630        C631   1.513       .  S
C631        F635   1.385       .  S
C631        F636   1.384       .  S
C631        F637   1.376       .  S
C634        F638   1.381       .  S
C634        F639   1.383       .  S
C634        F640   1.384       .  S
C641        C642   1.414       .  A
C641        C646   1.411       .  A
C641        H648   1.082       .  S
C642        C643   1.424       .  A
C643        C644   1.411       .  A
C643        C650   1.520       .  S
C644        C645   1.406       .  A
C644        H649   1.083       .  S
C645        C646   1.414       .  A
C646        C647   1.517       .  S
C647        F651   1.385       .  S
C647        F652   1.383       .  S
C647        F653   1.380       .  S
C650        F654   1.383       .  S
C650        F655   1.381       .  S
C650        F656   1.385       .  S
C657        C658   1.402       .  A
C657        C662   1.400   1_556  A
C657        H664   1.081       .  S
C658        C659   1.418       .  A
C659        C660   1.413   1_556  A
C659        C666   1.517       .  S
C660        C661   1.405       .  A
C660        H665   1.082       .  S
C661        C662   1.415       .  A
C662        C663   1.521       .  S
C663        F667   1.385       .  S
C663        F668   1.381       .  S
C663        F669   1.383       .  S
C666        F670   1.383       .  S
C666        F671   1.383       .  S
C666        F672   1.385   1_556  S
C673        C674   1.406       .  A
C673        C678   1.419       .  A
C673        H680   1.083       .  S
C674        C675   1.415       .  A
C675        C676   1.400       .  A
C675        C682   1.513       .  S
C676        C677   1.402       .  A
C676        H681   1.085       .  S
C677        C678   1.420       .  A
C678        C679   1.515       .  S
C679        F683   1.385       .  S
C679        F684   1.382       .  S
C679        F685   1.378       .  S
C682        F686   1.384       .  S
C682        F687   1.383       .  S
C682        F688   1.384       .  S
C689        C690   1.415       .  A
C689        C694   1.417       .  A
C689        H696   1.082       .  S
C690        C691   1.422       .  A
C691        C692   1.412       .  A
C691        C698   1.519       .  S
C692        C693   1.410       .  A
C692        H697   1.082       .  S
C693        C694   1.418       .  A
C694        C695   1.518       .  S
C695        F699   1.385       .  S
C695        F700   1.383       .  S
C695        F701   1.383       .  S
C698        F702   1.382       .  S
C698        F703   1.378       .  S
C698        F704   1.385       .  S
C705        C706   1.402       .  A
C705        C710   1.409   1_554  A
C705        H712   1.084       .  S
C706        C707   1.418       .  A
C707        C708   1.414   1_554  A
C707        C714   1.516       .  S
C708        C709   1.404       .  A
C708        H713   1.083       .  S
C709        C710   1.417       .  A
C710        C711   1.514       .  S
C711        F715   1.385   1_556  S
C711        F716   1.383       .  S
C711        F717   1.382       .  S
C714        F718   1.382       .  S
C714        F719   1.382       .  S
C714        F720   1.385       .  S
C721        C722   1.394       .  A
C721        C726   1.402       .  A
C721        H728   1.083       .  S
C722        C723   1.415       .  A
C723        C724   1.407   1_565  A
C723        C730   1.517       .  S
C724        C725   1.404       .  A
C724        H729   1.083       .  S
C725        C726   1.429   1_545  A
C726        C727   1.523       .  S
C727        F731   1.385       .  S
C727        F732   1.383       .  S
C727        F733   1.383   1_565  S
C730        F734   1.383       .  S
C730        F735   1.382       .  S
C730        F736   1.384       .  S
