geometry optimzed in LAMMPS
_audit_creation_date              2020-12-01 
_audit_creation_method            'lammps2cif' 
_symmetry_space_group_name_H-M    'P1' 
_symmetry_Int_Tables_number       1 
_symmetry_cell_setting            triclinic 
loop_ 
_symmetry_equiv_pos_as_xyz 
  x,y,z 
_cell_length_a                    47.53116123 
_cell_length_b                    47.44677674123472 
_cell_length_c                    95.96008290427416 
_cell_angle_alpha                 89.68335578267121 
_cell_angle_beta                  89.77514213332772 
_cell_angle_gamma                 89.76226157849327 
loop_ 
_atom_site_label 
_atom_site_type_symbol 
_atom_site_fract_x 
_atom_site_fract_y 
_atom_site_fract_z 
_atom_site_charge 
In1        In  0.81559884  0.43028879  0.07586982     1.36900
C2          C  0.87123863  0.42267608  0.07616892     0.78200
O3          O  0.80487114  0.39355047  0.08975212    -0.60200
O4          O  0.79887708  0.38898596  0.06800349    -0.51100
C5          C  0.78420720  0.46135679  0.09304175     0.70900
O6          O  0.80829623  0.45225699  0.09633448    -0.46000
C7          C  0.81326283  0.45973069  0.05232086     0.75600
O8          O  0.85906097  0.43941724  0.08444659    -0.57900
O9          O  0.79773792  0.43856974  0.05446617    -0.48000
O10         O  0.85494822  0.40940321  0.06829706    -0.54300
C11         C  0.79820615  0.37754686  0.07989199     0.85800
O12         O  0.77623263  0.45451788  0.08102105    -0.56200
O13         O  0.82880416  0.46631731  0.06238349    -0.59500
In14       In  0.14554703  0.43868705  0.06776417     1.36900
C15         C  0.09140250  0.43570013  0.07531529     0.78200
O16         O  0.13858182  0.46900819  0.04987324    -0.60200
O17         O  0.17140571  0.43904464  0.04795418    -0.51100
C18         C  0.17283764  0.47546895  0.08383569     0.70900
O19         O  0.14771012  0.47882809  0.08005921    -0.46000
C20         C  0.15772676  0.38381210  0.07046064     0.75600
O21         O  0.11121273  0.43582906  0.08398933    -0.57900
O22         O  0.14370169  0.39364963  0.06040583    -0.48000
O23         O  0.09925094  0.43696799  0.06276034    -0.54300
C24         C  0.15819679  0.45925427  0.04244838     0.85800
O25         O  0.18433215  0.45332939  0.07927773    -0.56200
O26         O  0.16603893  0.40209228  0.07896996    -0.59500
In27       In  0.82355083  0.58635573  0.93301337     1.36900
C28         C  0.87949131  0.58809197  0.93411229     0.78200
O29         O  0.82065448  0.62302144  0.91805601    -0.60200
O30         O  0.80998711  0.63010177  0.93919596    -0.51100
C31         C  0.79179480  0.55705627  0.91539978     0.70900
O32         O  0.81770436  0.56107566  0.91328795    -0.46000
C33         C  0.81054223  0.56027745  0.95679840     0.75600
O34         O  0.86669789  0.57220622  0.92575341    -0.57900
O35         O  0.79890578  0.58292048  0.95295776    -0.48000
O36         O  0.86373424  0.60240260  0.94193999    -0.54300
C37         C  0.81311749  0.64049270  0.92717995     0.85800
O38         O  0.78228934  0.56831003  0.92629118    -0.56200
O39         O  0.82898941  0.55097693  0.94849319    -0.59500
In40       In  0.15357393  0.59329731  0.92296188     1.36900
C41         C  0.09886453  0.58105771  0.92297674     0.78200
O42         O  0.15965859  0.55828799  0.93871274    -0.60200
O43         O  0.16448695  0.60038991  0.94548132    -0.51100
C44         C  0.18567984  0.57032391  0.90297128     0.70900
O45         O  0.16041504  0.57734611  0.90125574    -0.46000
C46         C  0.15897345  0.64838081  0.91775354     0.75600
O47         O  0.11732868  0.56461174  0.91820880    -0.57900
O48         O  0.17403987  0.63562538  0.92658872    -0.48000
O49         O  0.10837346  0.60367451  0.92787577    -0.54300
C50         C  0.16425223  0.57465538  0.94874812     0.85800
O51         O  0.19509242  0.57545984  0.91496357    -0.56200
O52         O  0.14210928  0.63281158  0.91130835    -0.59500
In53       In  0.81032402  0.10308135  0.07288789     1.36900
C54         C  0.86628926  0.09910121  0.07488439     0.78200
O55         O  0.81785584  0.06491376  0.05944193    -0.60200
O56         O  0.78831735  0.09551717  0.05262511    -0.51100
C57         C  0.77587618  0.08178400  0.09249275     0.70900
O58         O  0.80078041  0.08903994  0.09508747    -0.46000
C59         C  0.80050486  0.15830038  0.07072289     0.75600
O60         O  0.84973809  0.08255931  0.08109103    -0.57900
O61         O  0.79980847  0.14171093  0.06057234    -0.48000
O62         O  0.85427250  0.11804054  0.06781247    -0.54300
C63         C  0.80097537  0.07278731  0.05008361     0.85800
O64         O  0.76840655  0.08642192  0.08013550    -0.56200
O65         O  0.80578563  0.14666651  0.08230522    -0.59500
In66       In  0.14138037  0.10869913  0.06299704     1.36900
C67         C  0.08552371  0.11429963  0.06185813     0.78200
O68         O  0.14326591  0.15278598  0.07182442    -0.60200
O69         O  0.16391640  0.14511214  0.05264528    -0.51100
C70         C  0.17004630  0.08584421  0.08433135     0.70900
O71         O  0.14450023  0.09275439  0.08504494    -0.46000
C72         C  0.14654955  0.07006987  0.04293234     0.75600
O73         O  0.09793334  0.10315665  0.07211090    -0.57900
O74         O  0.15907454  0.09346032  0.04236172    -0.48000
O75         O  0.10167000  0.12285416  0.05230953    -0.54300
C76         C  0.15715574  0.16289955  0.06177917     0.85800
O77         O  0.18146735  0.09121204  0.07273643    -0.56200
O78         O  0.13210150  0.06636804  0.05380145    -0.59500
In79       In  0.81838934  0.91350410  0.93955692     1.36900
C80         C  0.87461374  0.91238134  0.93956765     0.78200
O81         O  0.81990133  0.95103417  0.95377327    -0.60200
O82         O  0.80677398  0.91178793  0.96225242    -0.51100
C83         C  0.78784071  0.94192000  0.92070167     0.70900
O84         O  0.81015914  0.92894601  0.91753574    -0.46000
C85         C  0.80104304  0.86041606  0.93645419     0.75600
O86         O  0.86094063  0.92945526  0.93202499    -0.57900
O87         O  0.78868483  0.87772820  0.94429635    -0.48000
O88         O  0.85959779  0.89639353  0.94694298    -0.54300
C89         C  0.81166711  0.93748225  0.96437746     0.85800
O90         O  0.78122960  0.94022398  0.93337458    -0.56200
O91         O  0.82134449  0.87063814  0.92965580    -0.59500
In92       In  0.14978217  0.92243587  0.92833072     1.36900
C93         C  0.09382175  0.92724613  0.92624828     0.78200
O94         O  0.14681265  0.87762748  0.92083474    -0.60200
O95         O  0.17384343  0.88580939  0.93779113    -0.51100
C96         C  0.18479941  0.93988227  0.90817574     0.70900
O97         O  0.16050817  0.93061068  0.90576278    -0.46000
C98         C  0.15573892  0.95858688  0.94930793     0.75600
O99         O  0.11059844  0.93861800  0.91774432    -0.57900
O100        O  0.15210782  0.96621461  0.93685223    -0.48000
O101        O  0.10560803  0.91300603  0.93571708    -0.54300
C102        C  0.16392351  0.86774531  0.92959818     0.85800
O103        O  0.19142505  0.93980582  0.92088270    -0.56200
O104        O  0.15660693  0.93220232  0.95113415    -0.59500
In105      In  0.32504269  0.94579078  0.17476165     1.36900
C106        C  0.31816634  0.89058708  0.16990159     0.78200
O107        O  0.37048083  0.93990346  0.16831656    -0.60200
O108        O  0.36186681  0.96579298  0.18570904    -0.51100
C109        C  0.30434329  0.97681263  0.15352840     0.70900
O110        O  0.28918612  0.96692342  0.16316648    -0.46000
C111        C  0.29915323  0.95860516  0.19881908     0.75600
O112        O  0.30424356  0.90946083  0.16368264    -0.57900
O113        O  0.30983864  0.97705604  0.19094540    -0.48000
O114        O  0.33530922  0.89988832  0.17872376    -0.54300
C115        C  0.38030023  0.95479002  0.17797553     0.85800
O116        O  0.33006294  0.97084947  0.15470987    -0.56200
O117        O  0.30137895  0.93380050  0.19429808    -0.59500
In118      In  0.32682418  0.61360287  0.17373125     1.36900
C119        C  0.32920384  0.66972123  0.17493816     0.78200
O120        O  0.28609935  0.61770196  0.18544551    -0.60200
O121        O  0.31884859  0.59378315  0.19478530    -0.51100
C122        C  0.30427217  0.57976653  0.15447376     0.70900
O123        O  0.30152693  0.60622461  0.15402729    -0.46000
C124        C  0.38201035  0.60468148  0.17185002     0.75600
O125        O  0.31904259  0.65706919  0.16455477    -0.57900
O126        O  0.36734846  0.59511798  0.18177109    -0.48000
O127        O  0.33760938  0.65372634  0.18459149    -0.54300
C128        C  0.29415596  0.60341048  0.19579647     0.85800
O129        O  0.31882014  0.57089940  0.16451497    -0.56200
O130        O  0.36830604  0.61793446  0.16268812    -0.59500
In131      In  0.16842905  0.94081944  0.31949233     1.36900
C132        C  0.17732947  0.88708336  0.32660630     0.78200
O133        O  0.12396638  0.92886159  0.32484504    -0.60200
O134        O  0.13034701  0.96576975  0.31270816    -0.51100
C135        C  0.19153508  0.97505407  0.33836094     0.70900
O136        O  0.20210193  0.95167913  0.33499792    -0.46000
C137        C  0.18870137  0.94592520  0.29358725     0.75600
O138        O  0.16372792  0.90390835  0.33422585    -0.57900
O139        O  0.16588128  0.93386045  0.29649408    -0.48000
O140        O  0.18690801  0.89791370  0.31556099    -0.54300
C141        C  0.11296717  0.94934709  0.31843419     0.85800
O142        O  0.16947725  0.98135865  0.33182925    -0.56200
O143        O  0.20113275  0.95638074  0.30394124    -0.59500
In144      In  0.19068379  0.61344306  0.32005120     1.36900
C145        C  0.19010610  0.66952767  0.31837417     0.78200
O146        O  0.23022234  0.61015211  0.30734975    -0.60200
O147        O  0.19230650  0.59676665  0.29794848    -0.51100
C148        C  0.22016479  0.58436737  0.33895451     0.70900
O149        O  0.22317859  0.61040174  0.33688702    -0.46000
C150        C  0.13651294  0.60353519  0.32584019     0.75600
O151        O  0.19697348  0.65649129  0.32932486    -0.57900
O152        O  0.14860768  0.59337143  0.31525408    -0.48000
O153        O  0.18324801  0.65394284  0.30839294    -0.54300
C154        C  0.21847217  0.60056723  0.29665688     0.85800
O155        O  0.20176710  0.57297688  0.33140487    -0.56200
O156        O  0.15227364  0.61782359  0.33355429    -0.59500
In157      In  0.65110560  0.58786080  0.19483431     1.36900
C158        C  0.64812373  0.64384680  0.19627386     0.78200
O159        O  0.60993785  0.59009070  0.18337360    -0.60200
O160        O  0.61112157  0.56828539  0.20268947    -0.51100
C161        C  0.67813790  0.55655023  0.17585534     0.70900
O162        O  0.67815509  0.58310616  0.17551496    -0.46000
C163        C  0.68070261  0.57778683  0.21772956     0.75600
O164        O  0.65687583  0.63131400  0.18551108    -0.57900
O165        O  0.65650123  0.56786670  0.21584963    -0.48000
O166        O  0.64096615  0.62779093  0.20613007    -0.54300
C167        C  0.59642904  0.57691248  0.19265887     0.85800
O168        O  0.66396601  0.54610983  0.18569034    -0.56200
O169        O  0.69026045  0.59210546  0.20766110    -0.59500
In170      In  0.65493494  0.91966007  0.18528215     1.36900
C171        C  0.65538496  0.86372164  0.18226694     0.78200
O172        O  0.68805813  0.91331601  0.20160597    -0.60200
O173        O  0.65504538  0.94184932  0.20622269    -0.51100
C174        C  0.68732517  0.95226850  0.16901806     0.70900
O175        O  0.69302832  0.92698332  0.17184039    -0.46000
C176        C  0.60091367  0.92872023  0.17871916     0.75600
O177        O  0.66425657  0.88045243  0.17303868    -0.57900
O178        O  0.60995131  0.93081855  0.19102323    -0.48000
O179        O  0.64589019  0.87556016  0.19305271    -0.54300
C180        C  0.67735851  0.92999370  0.21031802     0.85800
O181        O  0.66509770  0.96132309  0.17468734    -0.56200
O182        O  0.61949493  0.92246451  0.16986108    -0.59500
In183      In  0.83859280  0.92151561  0.32122510     1.36900
C184        C  0.83596789  0.86572775  0.32520842     0.78200
O185        O  0.79998421  0.91846063  0.30767074    -0.60200
O186        O  0.83742897  0.93458923  0.29867128    -0.51100
C187        C  0.81419484  0.96089833  0.33711412     0.70900
O188        O  0.81299608  0.93490369  0.33982912    -0.46000
C189        C  0.89338539  0.92979537  0.32581748     0.75600
O190        O  0.82304772  0.88303075  0.33283902    -0.57900
O191        O  0.88260621  0.93176840  0.31387171    -0.48000
O192        O  0.84986280  0.87691351  0.31545495    -0.54300
C193        C  0.81202807  0.92807538  0.29692870     0.85800
O194        O  0.82770952  0.96684515  0.32616751    -0.56200
O195        O  0.87610595  0.92422403  0.33540172    -0.59500
In196      In  0.86185113  0.59012440  0.31890907     1.36900
C197        C  0.86168007  0.64625028  0.31673922     0.78200
O198        O  0.90534500  0.59390127  0.32820757    -0.60200
O199        O  0.90100821  0.57326149  0.30878492    -0.51100
C200        C  0.84193101  0.55863616  0.33998331     0.70900
O201        O  0.83516834  0.58414192  0.33828997    -0.46000
C202        C  0.82777156  0.57586969  0.29810590     0.75600
O203        O  0.85617534  0.63365792  0.32804240    -0.57900
O204        O  0.85301985  0.56791948  0.29878898    -0.48000
O205        O  0.86742878  0.63020760  0.30672790    -0.54300
C206        C  0.91740187  0.58165956  0.31815251     0.85800
O207        O  0.85920157  0.54948640  0.33110481    -0.56200
O208        O  0.81945847  0.59011537  0.30838426    -0.59500
In209      In  0.69023850  0.59768523  0.57077492     1.36900
C210        C  0.63605529  0.58358599  0.57262381     0.78200
O211        O  0.71791892  0.63612287  0.57237928    -0.60200
O212        O  0.67360479  0.64170587  0.57224378    -0.51100
C213        C  0.71820098  0.57813729  0.59287674     0.70900
O214        O  0.69717143  0.59424907  0.59389656    -0.46000
C215        C  0.70472235  0.57758531  0.54574359     0.75600
O216        O  0.65486126  0.57172411  0.57978413    -0.57900
O217        O  0.69699645  0.56204677  0.55571162    -0.48000
O218        O  0.64499319  0.60236840  0.56442456    -0.54300
C219        C  0.69745341  0.65310525  0.57287083     0.85800
O220        O  0.72526825  0.57235757  0.58051811    -0.56200
O221        O  0.70639977  0.60329600  0.54874273    -0.59500
In222      In  0.36081224  0.56914270  0.56567040     1.36900
C223        C  0.41628392  0.57448744  0.56270312     0.78200
O224        O  0.36719550  0.52714904  0.55540643    -0.60200
O225        O  0.34187263  0.55747707  0.54496467    -0.51100
C226        C  0.33468914  0.54761433  0.58814014     0.70900
O227        O  0.35886182  0.55827173  0.58859441    -0.46000
C228        C  0.34351892  0.62282044  0.56534073     0.75600
O229        O  0.40547762  0.55996003  0.57238777    -0.57900
O230        O  0.33296880  0.60426074  0.55763603    -0.48000
O231        O  0.39879987  0.58566584  0.55452133    -0.54300
C232        C  0.35267501  0.53313352  0.54482436     0.85800
O233        O  0.32370413  0.54809501  0.57622075    -0.56200
O234        O  0.36223148  0.61375393  0.57348683    -0.59500
In235      In  0.68533952  0.42720491  0.43249642     1.36900
C236        C  0.62976793  0.42196026  0.43525770     0.78200
O237        O  0.68418338  0.39065302  0.41769269    -0.60200
O238        O  0.70215378  0.38363576  0.43757534    -0.51100
C239        C  0.71125203  0.45987846  0.41362882     0.70900
O240        O  0.68528440  0.46138066  0.41616765    -0.46000
C241        C  0.70029929  0.45286190  0.45598098     0.75600
O242        O  0.64110409  0.43260940  0.42455688    -0.57900
O243        O  0.71189462  0.43046347  0.45181588    -0.48000
O244        O  0.64680282  0.41447908  0.44460216    -0.54300
C245        C  0.69488900  0.37320535  0.42607957     0.85800
O246        O  0.72416257  0.44143884  0.42067731    -0.56200
O247        O  0.68149419  0.46241500  0.44799840    -0.59500
In248      In  0.35498506  0.41356867  0.42352004     1.36900
C249        C  0.41093314  0.41531890  0.42068437     0.78200
O250        O  0.35348677  0.45432132  0.43518752    -0.60200
O251        O  0.34282872  0.41716787  0.44632985    -0.51100
C252        C  0.31853069  0.43855347  0.40611918     0.70900
O253        O  0.34431321  0.44458274  0.40647130    -0.46000
C254        C  0.34605064  0.35845092  0.42055570     0.75600
O255        O  0.39429464  0.42094869  0.41087212    -0.57900
O256        O  0.33941622  0.37153508  0.43150937    -0.48000
O257        O  0.39902290  0.40849591  0.43195248    -0.54300
C258        C  0.34611421  0.44354105  0.44663269     0.85800
O259        O  0.31133399  0.41944568  0.41457289    -0.56200
O260        O  0.35677066  0.37360189  0.41113764    -0.59500
In261      In  0.66964131  0.92682275  0.57494298     1.36900
C262        C  0.61500852  0.92553077  0.58137006     0.78200
O263        O  0.66132324  0.96976998  0.56569647    -0.60200
O264        O  0.68285378  0.93976764  0.55328455    -0.51100
C265        C  0.70998477  0.94544742  0.59184203     0.70900
O266        O  0.68424893  0.95075296  0.59368113    -0.46000
C267        C  0.67707727  0.87165459  0.57132047     0.75600
O268        O  0.63373558  0.92884219  0.59046838    -0.57900
O269        O  0.67704026  0.88908424  0.56138589    -0.48000
O270        O  0.62430936  0.92271158  0.56914744    -0.54300
C271        C  0.67239863  0.96416428  0.55409216     0.85800
O272        O  0.71521177  0.93045803  0.58134582    -0.56200
O273        O  0.67413810  0.88247562  0.58321553    -0.59500
In274      In  0.34194668  0.89908818  0.57009640     1.36900
C275        C  0.39772417  0.90358568  0.56983661     0.78200
O276        O  0.34531383  0.86101018  0.58399608    -0.60200
O277        O  0.33308551  0.85463351  0.56303588    -0.51100
C278        C  0.30589326  0.92338769  0.58777648     0.70900
O279        O  0.33187587  0.92868671  0.58771605    -0.46000
C280        C  0.32916652  0.92695581  0.54681780     0.75600
O281        O  0.38302114  0.91105820  0.58017618    -0.57900
O282        O  0.31988927  0.90259704  0.54939530    -0.48000
O283        O  0.38393917  0.89360820  0.55984199    -0.54300
C284        C  0.33864477  0.84364639  0.57471326     0.85800
O285        O  0.29842011  0.90551028  0.57889051    -0.56200
O286        O  0.34415548  0.93723272  0.55631039    -0.59500
In287      In  0.67813594  0.09951401  0.43510321     1.36900
C288        C  0.62247619  0.10728409  0.43465587     0.78200
O289        O  0.66537864  0.07660984  0.45462058    -0.60200
O290        O  0.70888399  0.07952716  0.45032854    -0.51100
C291        C  0.69907956  0.06732223  0.41462572     0.70900
O292        O  0.67830580  0.06033306  0.42201297    -0.46000
C293        C  0.69638174  0.15273565  0.43464852     0.75600
O294        O  0.63513551  0.09268059  0.42560207    -0.57900
O295        O  0.70326867  0.13526714  0.44398618    -0.48000
O296        O  0.63833661  0.11846659  0.44350947    -0.54300
C297        C  0.68996065  0.07064369  0.45843515     0.85800
O298        O  0.70890758  0.09126988  0.41740081    -0.56200
O299        O  0.68107490  0.14268667  0.42518493    -0.59500
In300      In  0.34785718  0.08771027  0.43583973     1.36900
C301        C  0.40367595  0.08274616  0.43336950     0.78200
O302        O  0.34689990  0.13068507  0.42606034    -0.60200
O303        O  0.32124737  0.12361577  0.44385972    -0.51100
C304        C  0.32076790  0.06350794  0.41469015     0.70900
O305        O  0.34666966  0.06872109  0.41453780    -0.46000
C306        C  0.34198740  0.06486882  0.46110595     0.75600
O307        O  0.38744632  0.06183839  0.43359064    -0.57900
O308        O  0.33466914  0.05230127  0.45016007    -0.48000
O309        O  0.39140077  0.10623006  0.43446958    -0.54300
C310        C  0.33008465  0.14094850  0.43488295     0.85800
O311        O  0.30822951  0.07090358  0.42569904    -0.56200
O312        O  0.35160892  0.08923462  0.45913396    -0.59500
In313      In  0.18377841  0.40833671  0.68002203     1.36900
C314        C  0.17841981  0.35241206  0.68146192     0.78200
O315        O  0.21603005  0.40043866  0.69682715    -0.60200
O316        O  0.18982546  0.43635172  0.69876208    -0.51100
C317        C  0.21295230  0.43222817  0.65919829     0.70900
O318        O  0.20635017  0.40658873  0.65943255    -0.46000
C319        C  0.13061383  0.42319752  0.67479410     0.75600
O320        O  0.19895607  0.36415288  0.67545569    -0.57900
O321        O  0.14113930  0.42430682  0.68681611    -0.48000
O322        O  0.16102920  0.36920578  0.68688880    -0.54300
C323        C  0.20901790  0.42142783  0.70406074     0.85800
O324        O  0.20521855  0.44581363  0.66981735    -0.56200
O325        O  0.14742088  0.41520294  0.66544332    -0.59500
In326      In  0.18638759  0.07720958  0.68487366     1.36900
C327        C  0.19389039  0.13292483  0.68340335     0.78200
O328        O  0.14216134  0.07560140  0.67645852    -0.60200
O329        O  0.14870520  0.06267795  0.69733790    -0.51100
C330        C  0.20989160  0.05375255  0.66236547     0.70900
O331        O  0.21370563  0.07899628  0.66575838    -0.46000
C332        C  0.21362470  0.05873697  0.70737850     0.75600
O333        O  0.21303105  0.11600786  0.68700176    -0.57900
O334        O  0.19883478  0.08086177  0.70727350    -0.48000
O335        O  0.17077600  0.12140639  0.68054204    -0.54300
C336        C  0.13130729  0.06693116  0.68769153     0.85800
O337        O  0.19321428  0.04045928  0.67023315    -0.56200
O338        O  0.21410042  0.04561251  0.69600002    -0.59500
In339      In  0.34844704  0.08113260  0.82415244     1.36900
C340        C  0.35249133  0.13687634  0.82113964     0.78200
O341        O  0.38870875  0.07937416  0.83620638    -0.60200
O342        O  0.38951248  0.06303193  0.81571567    -0.51100
C343        C  0.32282270  0.05445578  0.84528471     0.70900
O344        O  0.32798835  0.08046214  0.84526503    -0.46000
C345        C  0.31259043  0.07186815  0.80343459     0.75600
O346        O  0.34013665  0.12552015  0.83137685    -0.57900
O347        O  0.33527590  0.05803936  0.80455681    -0.48000
O348        O  0.36301377  0.11973852  0.81257407    -0.54300
C349        C  0.40322708  0.06867983  0.82658769     0.85800
O350        O  0.33134229  0.04163892  0.83455694    -0.56200
O351        O  0.30831876  0.08949888  0.81295234    -0.59500
In352      In  0.34500425  0.41367161  0.82300311     1.36900
C353        C  0.33734057  0.35813996  0.82656755     0.78200
O354        O  0.30873028  0.41450161  0.80775233    -0.60200
O355        O  0.34986858  0.42150823  0.79998049    -0.51100
C356        C  0.32275459  0.44731759  0.84264461     0.70900
O357        O  0.33879202  0.42687978  0.84537991    -0.46000
C358        C  0.39929561  0.42727300  0.82409997     0.75600
O359        O  0.32129090  0.37637038  0.83189300    -0.57900
O360        O  0.38932063  0.40580695  0.83010832    -0.48000
O361        O  0.35720844  0.36828459  0.81945189    -0.54300
C362        C  0.32412519  0.41905350  0.79724827     0.85800
O363        O  0.31819494  0.45084718  0.82982400    -0.56200
O364        O  0.38131024  0.44241730  0.81794432    -0.59500
In365      In  0.85745214  0.09792491  0.67751642     1.36900
C366        C  0.85992788  0.15384372  0.67440846     0.78200
O367        O  0.81680374  0.10169135  0.68908288    -0.60200
O368        O  0.84919431  0.07775481  0.69870478    -0.51100
C369        C  0.82753422  0.06993408  0.65880196     0.70900
O370        O  0.82989737  0.09637353  0.65875654    -0.46000
C371        C  0.91188443  0.08310028  0.67613122     0.75600
O372        O  0.86072084  0.13720077  0.66425052    -0.57900
O373        O  0.90088331  0.09308407  0.68702129    -0.48000
O374        O  0.85856491  0.14190006  0.68613825    -0.54300
C375        C  0.82432816  0.08719488  0.69943462     0.85800
O376        O  0.84109198  0.05740588  0.66831884    -0.56200
O377        O  0.89499240  0.08003248  0.66621582    -0.59500
In378      In  0.85788029  0.42891858  0.68537669     1.36900
C379        C  0.86012856  0.37307838  0.68841890     0.78200
O380        O  0.90185507  0.42362495  0.67705385    -0.60200
O381        O  0.89431124  0.45663840  0.69132451    -0.51100
C382        C  0.83448045  0.45432564  0.66319002     0.70900
O383        O  0.84282857  0.42916209  0.66315575    -0.46000
C384        C  0.82692483  0.43929892  0.70796776     0.75600
O385        O  0.84711777  0.38495474  0.67855200    -0.57900
O386        O  0.85150650  0.44853460  0.70633983    -0.48000
O387        O  0.87169920  0.38975124  0.69678254    -0.54300
C388        C  0.91201930  0.44347441  0.68405246     0.85800
O389        O  0.83811508  0.46679553  0.67459271    -0.56200
O390        O  0.81753519  0.42566558  0.69774296    -0.59500
In391      In  0.67322744  0.40217300  0.81981328     1.36900
C392        C  0.68405192  0.34699263  0.82147093     0.78200
O393        O  0.63631354  0.39449496  0.83399942    -0.60200
O394        O  0.62913980  0.41761738  0.81539889    -0.51100
C395        C  0.69643058  0.44066480  0.83639755     0.70900
O396        O  0.69353405  0.41525184  0.83995798    -0.46000
C397        C  0.69384263  0.41252748  0.79443843     0.75600
O398        O  0.69885226  0.36519332  0.82748010    -0.57900
O399        O  0.66795305  0.41409030  0.79723433    -0.48000
O400        O  0.66399887  0.35703848  0.81442468    -0.54300
C401        C  0.61878960  0.40697685  0.82632807     0.85800
O402        O  0.68708275  0.44649814  0.82447799    -0.56200
O403        O  0.70914911  0.40542110  0.80458887    -0.59500
In404      In  0.67681366  0.07080402  0.81257677     1.36900
C405        C  0.67316447  0.12676424  0.81234364     0.78200
O406        O  0.72056029  0.07817857  0.80451012    -0.60200
O407        O  0.69207871  0.05635708  0.79148346    -0.51100
C408        C  0.69754518  0.03592646  0.83191145     0.70900
O409        O  0.69407367  0.06195352  0.83400178    -0.46000
C410        C  0.62212046  0.05782566  0.81134122     0.75600
O411        O  0.68178576  0.11331833  0.82290835    -0.57900
O412        O  0.63914937  0.05274768  0.80155825    -0.48000
O413        O  0.66609679  0.11159843  0.80223979    -0.54300
C414        C  0.71640402  0.06653955  0.79293852     0.85800
O415        O  0.68991635  0.02770122  0.82005554    -0.56200
O416        O  0.63321677  0.06869870  0.82193852    -0.59500
C417        C  0.67653840  0.26604749  0.81793918     0.19300
C418        C  0.65798298  0.24906984  0.81039180    -0.18800
C419        C  0.65920228  0.21973995  0.81141247    -0.11000
C420        C  0.67935955  0.20642255  0.81993079     0.21600
C421        C  0.69788381  0.22330284  0.82757567    -0.20400
C422        C  0.69660779  0.25278888  0.82658862    -0.11200
C423        C  0.68106892  0.17513603  0.82127510    -0.15400
C424        C  0.67133487  0.15770472  0.81140552    -0.29200
C425        C  0.67321738  0.29724598  0.81666173    -0.03500
C426        C  0.68972896  0.31645582  0.82282782    -0.40000
H427        H  0.64211651  0.25855510  0.80377219     0.12700
H428        H  0.64379143  0.20774974  0.80572394     0.12400
H429        H  0.71344550  0.21364239  0.83430979     0.11800
H430        H  0.71121647  0.26482261  0.83273471     0.12000
H431        H  0.69145921  0.16623649  0.83036704     0.14800
H432        H  0.66253510  0.16615889  0.80185249     0.13500
H433        H  0.65582344  0.30488008  0.81033141     0.11200
H434        H  0.70748457  0.31012397  0.82916602     0.13200
C435        C  0.74542920  0.42421323  0.76375032     0.19300
C436        C  0.77379214  0.43214886  0.76292275    -0.18800
C437        C  0.78719504  0.43526315  0.75001716    -0.11000
C438        C  0.77245709  0.43043525  0.73755533     0.21600
C439        C  0.74399721  0.42278165  0.73837709    -0.20400
C440        C  0.73055986  0.41973814  0.75130147    -0.11200
C441        C  0.78657568  0.43065010  0.72367063    -0.15400
C442        C  0.81137015  0.44327766  0.72113332    -0.29200
C443        C  0.73287267  0.41902633  0.77775893    -0.03500
C444        C  0.70504134  0.41851493  0.78036722    -0.40000
H445        H  0.78583535  0.43542734  0.77233592     0.12700
H446        H  0.80933834  0.44032684  0.74996717     0.12400
H447        H  0.73224582  0.41854065  0.72897324     0.11800
H448        H  0.70890394  0.41287724  0.75143971     0.12000
H449        H  0.77651477  0.41915688  0.71529445     0.14800
H450        H  0.82151194  0.45572547  0.72909503     0.13500
H451        H  0.74731586  0.41584192  0.78638961     0.11200
H452        H  0.68999783  0.42300609  0.77217895     0.13200
C453        C  0.79183586  0.06442597  0.73476454     0.19300
C454        C  0.80197501  0.06147342  0.74842477    -0.18800
C455        C  0.78331409  0.05852445  0.75968854    -0.11000
C456        C  0.75403510  0.05824711  0.75747350     0.21600
C457        C  0.74401251  0.05984131  0.74376900    -0.20400
C458        C  0.76260069  0.06292825  0.73254742    -0.11200
C459        C  0.73325196  0.05634705  0.76908462    -0.15400
C460        C  0.73837093  0.06575129  0.78202120    -0.29200
C461        C  0.81210844  0.06877053  0.72304363    -0.03500
C462        C  0.80483573  0.08213624  0.71118083    -0.40000
H463        H  0.82438898  0.06194023  0.75041359     0.12700
H464        H  0.79190230  0.05633248  0.77006014     0.12400
H465        H  0.72161418  0.05914895  0.74173849     0.11800
H466        H  0.75391126  0.06387142  0.72215881     0.12000
H467        H  0.71224170  0.04892960  0.76662258     0.14800
H468        H  0.75864735  0.07479343  0.78453939     0.13500
H469        H  0.83377884  0.06194583  0.72443763     0.11200
H470        H  0.78376704  0.09067858  0.71001503     0.13200
C471        C  0.85373890  0.29313121  0.68162190     0.19300
C472        C  0.84871086  0.27720974  0.66960231    -0.18800
C473        C  0.85022987  0.24776693  0.66996068    -0.11000
C474        C  0.85684484  0.23350136  0.68243303     0.21600
C475        C  0.86146253  0.24939799  0.69449982    -0.20400
C476        C  0.85995180  0.27883543  0.69414068    -0.11200
C477        C  0.85790780  0.20220961  0.68354017    -0.15400
C478        C  0.86007820  0.18472940  0.67258158    -0.29200
C479        C  0.85148691  0.32440322  0.68066035    -0.03500
C480        C  0.86209676  0.34222075  0.69013573    -0.40000
H481        H  0.84350523  0.28760954  0.65986578     0.12700
H482        H  0.84562622  0.23644893  0.66050584     0.12400
H483        H  0.86615275  0.23897730  0.70429337     0.11800
H484        H  0.86313481  0.29007656  0.70376537     0.12000
H485        H  0.85715022  0.19311475  0.69395631     0.14800
H486        H  0.86180956  0.19287000  0.66204282     0.13500
H487        H  0.84142315  0.33320881  0.67144675     0.11200
H488        H  0.87338344  0.33437183  0.69916238     0.13200
C489        C  0.53902103  0.42146602  0.82484011     0.19300
C490        C  0.52211389  0.44433177  0.82074549    -0.18800
C491        C  0.49286838  0.44349213  0.82252071    -0.11000
C492        C  0.47984154  0.41938464  0.82822231     0.21600
C493        C  0.49688969  0.39665777  0.83242595    -0.20400
C494        C  0.52607901  0.39758575  0.83072802    -0.11200
C495        C  0.44874644  0.41639411  0.82966242    -0.15400
C496        C  0.42965238  0.43373582  0.82375312    -0.29200
C497        C  0.56980864  0.42238862  0.82211757    -0.03500
C498        C  0.58859104  0.40797863  0.82983934    -0.40000
H499        H  0.53159188  0.46294117  0.81614865     0.12700
H500        H  0.48080439  0.46174357  0.81935322     0.12400
H501        H  0.48752561  0.37776177  0.83678434     0.11800
H502        H  0.53829363  0.37920474  0.83364214     0.12000
H503        H  0.44114821  0.39790753  0.83524481     0.14800
H504        H  0.43608144  0.45206208  0.81778931     0.13500
H505        H  0.57723863  0.43546932  0.81353465     0.11200
H506        H  0.58174075  0.39615467  0.83894465     0.13200
C507        C  0.54211990  0.05558600  0.81951029     0.19300
C508        C  0.52618084  0.05696239  0.83183666    -0.18800
C509        C  0.49675331  0.05625319  0.83150785    -0.11000
C510        C  0.48231732  0.05461363  0.81873238     0.21600
C511        C  0.49829042  0.05247692  0.80641826    -0.20400
C512        C  0.52778447  0.05305435  0.80675700    -0.11200
C513        C  0.45088492  0.05578693  0.81771633    -0.15400
C514        C  0.43390161  0.06438075  0.82816362    -0.29200
C515        C  0.57334185  0.05854219  0.82046705    -0.03500
C516        C  0.59160246  0.05217869  0.81015807    -0.40000
H517        H  0.53656687  0.05879201  0.84181871     0.12700
H518        H  0.48566538  0.05704625  0.84133935     0.12400
H519        H  0.48788650  0.05108723  0.79642266     0.11800
H520        H  0.53904756  0.05241233  0.79695887     0.12000
H521        H  0.44145959  0.05101765  0.80770241     0.14800
H522        H  0.44261267  0.07045194  0.83810719     0.13500
H523        H  0.58170313  0.06661073  0.83018371     0.11200
H524        H  0.58426637  0.04321080  0.80047607     0.13200
C525        C  0.34792821  0.27705429  0.82451606     0.19300
C526        C  0.36705798  0.25983680  0.81725544    -0.18800
C527        C  0.36555235  0.23044747  0.81816491    -0.11000
C528        C  0.34467849  0.21739224  0.82636502     0.21600
C529        C  0.32566199  0.23454242  0.83372215    -0.20400
C530        C  0.32716602  0.26398636  0.83281939    -0.11200
C531        C  0.34271347  0.18617049  0.82797566    -0.15400
C532        C  0.35462652  0.16765785  0.81911908    -0.29200
C533        C  0.35096417  0.30830266  0.82318275    -0.03500
C534        C  0.33297645  0.32750682  0.82853359    -0.40000
H535        H  0.38344027  0.26917196  0.81088989     0.12700
H536        H  0.38123601  0.21823306  0.81264638     0.12400
H537        H  0.30955144  0.22511159  0.84023206     0.11800
H538        H  0.31215809  0.27613562  0.83877798     0.12000
H539        H  0.33048455  0.17808402  0.83670467     0.14800
H540        H  0.36588675  0.17490768  0.80994966     0.13500
H541        H  0.36897740  0.31594049  0.81729687     0.11200
H542        H  0.31456527  0.32111712  0.83437775     0.13200
C543        C  0.99146101  0.07433069  0.68345429     0.19300
C544        C  0.00780546  0.06810051  0.69524090    -0.18800
C545        C  0.03713341  0.06550116  0.69420280    -0.11000
C546        C  0.05085734  0.06937090  0.68128117     0.21600
C547        C  0.03438443  0.07521845  0.66948507    -0.20400
C548        C  0.00512954  0.07773019  0.67052372    -0.11200
C549        C  0.08212272  0.06952454  0.67961634    -0.15400
C550        C  0.10070834  0.06295921  0.68970155    -0.29200
C551        C  0.96059406  0.07902212  0.68514679    -0.03500
C552        C  0.94208189  0.07615786  0.67467301    -0.40000
H553        H  0.99785874  0.06559724  0.70534761     0.12700
H554        H  0.04874624  0.06127827  0.70363522     0.12400
H555        H  0.04426372  0.07856670  0.65942458     0.11800
H556        H  0.99351401  0.08337007  0.66124381     0.12000
H557        H  0.09033578  0.07637876  0.66957319     0.14800
H558        H  0.09372860  0.05562563  0.69983722     0.13500
H559        H  0.95284712  0.08499277  0.69539465     0.11200
H560        H  0.94911984  0.06881537  0.66454762     0.13200
C561        C  0.27682737  0.05115458  0.76889826     0.19300
C562        C  0.28695018  0.04132470  0.75603114    -0.18800
C563        C  0.27052107  0.04371162  0.74398178    -0.11000
C564        C  0.24347673  0.05585097  0.74462933     0.21600
C565        C  0.23286754  0.06434856  0.75759561    -0.20400
C566        C  0.24912725  0.06174096  0.76961584    -0.11200
C567        C  0.22661085  0.06235448  0.73201547    -0.15400
C568        C  0.22961723  0.04927775  0.71970458    -0.29200
C569        C  0.29602800  0.05125302  0.78115636    -0.03500
C570        C  0.29240531  0.06894831  0.79192764    -0.40000
H571        H  0.30807782  0.03283863  0.75518745     0.12700
H572        H  0.27959890  0.03725065  0.73414541     0.12400
H573        H  0.21200310  0.07349740  0.75840180     0.11800
H574        H  0.23988639  0.06837641  0.77937683     0.12000
H575        H  0.21087615  0.07893881  0.73294479     0.14800
H576        H  0.24403367  0.03166091  0.71854566     0.13500
H577        H  0.31474428  0.03802839  0.78083369     0.11200
H578        H  0.27469135  0.08340125  0.79212181     0.13200
C579        C  0.05139681  0.43824615  0.67969638     0.19300
C580        C  0.03474518  0.45103698  0.69001472    -0.18800
C581        C  0.00537093  0.45111029  0.68904545    -0.11000
C582        C  0.99198952  0.43825636  0.67767494     0.21600
C583        C  0.00865493  0.42589323  0.66726082    -0.20400
C584        C  0.03796538  0.42584752  0.66821764    -0.11200
C585        C  0.96095212  0.43499068  0.67681805    -0.15400
C586        C  0.94227136  0.45019052  0.68421816    -0.29200
C587        C  0.08230420  0.43595294  0.68191917    -0.03500
C588        C  0.10085335  0.42948511  0.67179176    -0.40000
H589        H  0.04449323  0.46040958  0.69905989     0.12700
H590        H  0.99339578  0.46023505  0.69750003     0.12400
H591        H  0.99891058  0.41553838  0.65848377     0.11800
H592        H  0.04974898  0.41498815  0.66022012     0.12000
H593        H  0.95311109  0.41879756  0.66987761     0.14800
H594        H  0.94908578  0.46720223  0.69088682     0.13500
H595        H  0.09000513  0.43884983  0.69246944     0.11200
H596        H  0.09413894  0.42751917  0.66105842     0.13200
C597        C  0.25355452  0.41538232  0.73763339     0.19300
C598        C  0.28069225  0.40522481  0.74056446    -0.18800
C599        C  0.29167232  0.40666456  0.75405490    -0.11000
C600        C  0.27556639  0.41805093  0.76501473     0.21600
C601        C  0.24825705  0.42782794  0.76214806    -0.20400
C602        C  0.23740080  0.42674431  0.74859554    -0.11200
C603        C  0.28608225  0.41848241  0.77962164    -0.15400
C604        C  0.31355171  0.42061964  0.78279776    -0.29200
C605        C  0.24212675  0.41170673  0.72331790    -0.03500
C606        C  0.22137127  0.42764607  0.71784003    -0.40000
H607        H  0.29338334  0.39589809  0.73239196     0.12700
H608        H  0.31243776  0.39804799  0.75593127     0.12400
H609        H  0.23524390  0.43624163  0.77043794     0.11800
H610        H  0.21607354  0.43395938  0.74686453     0.12000
H611        H  0.27068628  0.41741291  0.78801116     0.14800
H612        H  0.32904143  0.42325804  0.77455605     0.13500
H613        H  0.25133239  0.39509609  0.71699067     0.11200
H614        H  0.21270051  0.44524266  0.72364482     0.13200
C615        C  0.18242725  0.21289751  0.67794519     0.19300
C616        C  0.15874570  0.23058519  0.67873253    -0.18800
C617        C  0.16161189  0.25989375  0.67810811    -0.11000
C618        C  0.18835630  0.27221617  0.67661509     0.21600
C619        C  0.21193591  0.25452091  0.67530214    -0.20400
C620        C  0.20909005  0.22519330  0.67600550    -0.11200
C621        C  0.19231434  0.30330884  0.67605430    -0.15400
C622        C  0.17444394  0.32161367  0.68212561    -0.29200
C623        C  0.17831420  0.18184083  0.67878909    -0.03500
C624        C  0.19866525  0.16359930  0.68259701    -0.40000
H625        H  0.13791547  0.22168866  0.67993812     0.12700
H626        H  0.14278661  0.27273240  0.67860015     0.12400
H627        H  0.23269985  0.26343969  0.67385733     0.11800
H628        H  0.22777166  0.21234174  0.67481133     0.12000
H629        H  0.21108709  0.31133812  0.67090636     0.14800
H630        H  0.15628941  0.31400998  0.68788704     0.13500
H631        H  0.15740837  0.17376333  0.67664786     0.11200
H632        H  0.21937338  0.17111683  0.68542738     0.13200
C633        C  0.48304609  0.09976762  0.43079090     0.19300
C634        C  0.49945455  0.12224702  0.43555304    -0.18800
C635        C  0.52881983  0.12134834  0.43455973    -0.11000
C636        C  0.54256261  0.09783928  0.42870775     0.21600
C637        C  0.52611039  0.07561298  0.42366603    -0.20400
C638        C  0.49671427  0.07648250  0.42469765    -0.11200
C639        C  0.57381473  0.09592585  0.42742400    -0.15400
C640        C  0.59162948  0.11088998  0.43532875    -0.29200
C641        C  0.45184733  0.10194288  0.43198477    -0.03500
C642        C  0.43446940  0.07960747  0.43189497    -0.40000
H643        H  0.48949975  0.14062231  0.44009097     0.12700
H644        H  0.54048968  0.13938785  0.43816305     0.12400
H645        H  0.53605322  0.05743382  0.41893694     0.11800
H646        H  0.48488278  0.05910033  0.42047786     0.12000
H647        H  0.58248902  0.08058094  0.42019946     0.14800
H648        H  0.58361321  0.12511802  0.44321521     0.13500
H649        H  0.44287356  0.12281584  0.43351120     0.11200
H650        H  0.44278769  0.05837863  0.43101833     0.13200
C651        C  0.24019709  0.00023995  0.63605535     0.19300
C652        C  0.23065148  0.97553678  0.62966452    -0.18800
C653        C  0.24726652  0.96160698  0.61973820    -0.11000
C654        C  0.27402552  0.97205736  0.61606110     0.21600
C655        C  0.28356357  0.99666316  0.62254537    -0.20400
C656        C  0.26696120  0.01057806  0.63241626    -0.11200
C657        C  0.29330048  0.95758598  0.60606983    -0.15400
C658        C  0.28559601  0.93684008  0.59738327    -0.29200
C659        C  0.22265242  0.01372655  0.64707417    -0.03500
C660        C  0.22487168  0.04112045  0.65043207    -0.40000
H661        H  0.21032239  0.96687742  0.63243189     0.12700
H662        H  0.23921947  0.94239305  0.61530190     0.12400
H663        H  0.30417715  0.00502973  0.62008616     0.11800
H664        H  0.27561193  0.02893317  0.63744499     0.12000
H665        H  0.31499803  0.96472829  0.60571132     0.14800
H666        H  0.26398512  0.92974712  0.59696125     0.13500
H667        H  0.20756559  0.00065262  0.65264120     0.11200
H668        H  0.23882833  0.05482895  0.64456559     0.13200
C669        C  0.33316591  0.01089336  0.49099180     0.19300
C670        C  0.31757439  0.98609633  0.49281892    -0.18800
C671        C  0.31839401  0.97117452  0.50542534    -0.11000
C672        C  0.33507905  0.98071882  0.51653205     0.21600
C673        C  0.35080832  0.00545454  0.51464401    -0.20400
C674        C  0.34997114  0.02035376  0.50205073    -0.11200
C675        C  0.33761858  0.96542612  0.53007946    -0.15400
C676        C  0.32356079  0.94179395  0.53356501    -0.29200
C677        C  0.33258635  0.02527349  0.47718123    -0.03500
C678        C  0.34038283  0.05219543  0.47513428    -0.40000
H679        H  0.30474263  0.97814401  0.48441436     0.12700
H680        H  0.30613066  0.95213785  0.50622263     0.12400
H681        H  0.36412959  0.01316884  0.52291718     0.11800
H682        H  0.36311291  0.03877959  0.50097762     0.12000
H683        H  0.35250508  0.97384515  0.53753879     0.14800
H684        H  0.30864558  0.93227021  0.52654621     0.13500
H685        H  0.32554149  0.01308735  0.46829751     0.11200
H686        H  0.34653800  0.06529291  0.48382216     0.13200
C687        C  0.78670781  0.01373674  0.63835774     0.19300
C688        C  0.79292441  0.98729865  0.63256841    -0.18800
C689        C  0.77371854  0.97411685  0.62367893    -0.11000
C690        C  0.74770819  0.98702506  0.62064276     0.21600
C691        C  0.74127491  0.01304753  0.62675663    -0.20400
C692        C  0.76053869  0.02633924  0.63544275    -0.11200
C693        C  0.72623009  0.97387879  0.61157166    -0.15400
C694        C  0.73227711  0.95608775  0.60110151    -0.29200
C695        C  0.80713262  0.02738874  0.64785920    -0.03500
C696        C  0.80939054  0.05557988  0.64866954    -0.40000
H697        H  0.81273637  0.97694745  0.63485572     0.12700
H698        H  0.77904414  0.95367107  0.61945099     0.12400
H699        H  0.72124410  0.02322938  0.62475552     0.11800
H700        H  0.75459109  0.04622501  0.64010729     0.12000
H701        H  0.70452734  0.98056058  0.61305620     0.14800
H702        H  0.75388374  0.95011123  0.59888331     0.13500
H703        H  0.82073188  0.01404699  0.65416585     0.11200
H704        H  0.79713584  0.06895069  0.64174862     0.13200
C705        C  0.67904270  0.03040773  0.49312281     0.19300
C706        C  0.65735794  0.03079617  0.50310080    -0.18800
C707        C  0.65932195  0.01470760  0.51530308    -0.11000
C708        C  0.68305444  0.99763113  0.51776584     0.21600
C709        C  0.70465631  0.99701330  0.50775182    -0.20400
C710        C  0.70281257  0.01332923  0.49558022    -0.11200
C711        C  0.68496375  0.97880479  0.53015724    -0.15400
C712        C  0.67213195  0.98438292  0.54236177    -0.29200
C713        C  0.67510598  0.04687374  0.48003786    -0.03500
C714        C  0.69600709  0.05450558  0.47129367    -0.40000
H715        H  0.63863661  0.04342732  0.50138626     0.12700
H716        H  0.64182168  0.01503362  0.52254525     0.12400
H717        H  0.72294358  0.98367580  0.50931017     0.11800
H718        H  0.71963072  0.01180353  0.48800053     0.12000
H719        H  0.69756819  0.95973506  0.52920957     0.14800
H720        H  0.66073024  0.00403090  0.54379796     0.13500
H721        H  0.65376226  0.05358050  0.47763120     0.11200
H722        H  0.71774900  0.04934623  0.47358272     0.13200
C723        C  0.47524712  0.91849496  0.57870542     0.19300
C724        C  0.49222985  0.91418340  0.59047492    -0.18800
C725        C  0.52159668  0.91621331  0.58945371    -0.11000
C726        C  0.53443312  0.92302707  0.57661964     0.21600
C727        C  0.51728903  0.92820740  0.56500819    -0.20400
C728        C  0.48809317  0.92613640  0.56602770    -0.11200
C729        C  0.56542561  0.92374264  0.57450255    -0.15400
C730        C  0.58466520  0.92506428  0.58472723    -0.29200
C731        C  0.44424242  0.91511767  0.57985924    -0.03500
C732        C  0.42852489  0.90649579  0.56907348    -0.40000
H733        H  0.48279587  0.90851035  0.60038398     0.12700
H734        H  0.53400990  0.91171352  0.59862266     0.12400
H735        H  0.52654117  0.93374233  0.55504303     0.11800
H736        H  0.47565467  0.93067492  0.55685246     0.12000
H737        H  0.57282440  0.92361537  0.56376784     0.14800
H738        H  0.57838876  0.92636510  0.59557709     0.13500
H739        H  0.43428597  0.91879349  0.58990551     0.11200
H740        H  0.43849318  0.90096397  0.55925670     0.13200
C741        C  0.32985038  0.27985040  0.42766203     0.19300
C742        C  0.32770103  0.26366580  0.43991909    -0.18800
C743        C  0.32752889  0.23419716  0.43938026    -0.11000
C744        C  0.32930066  0.22027014  0.42650203     0.21600
C745        C  0.33067838  0.23639585  0.41423403    -0.20400
C746        C  0.33063376  0.26583760  0.41475934    -0.11200
C747        C  0.33236900  0.18920222  0.42554188    -0.15400
C748        C  0.32252039  0.17109925  0.43520348    -0.29200
C749        C  0.33174609  0.31110268  0.42883772    -0.03500
C750        C  0.34223596  0.32784926  0.41872228    -0.40000
H751        H  0.32698800  0.27384354  0.44998729     0.12700
H752        H  0.32713391  0.22247382  0.44908166     0.12400
H753        H  0.33203731  0.22615040  0.40419511     0.11800
H754        H  0.33131859  0.27735358  0.40501812     0.12000
H755        H  0.34377965  0.18095922  0.41659751     0.14800
H756        H  0.30988280  0.17859826  0.44387929     0.13500
H757        H  0.32579922  0.32052974  0.43872216     0.11200
H758        H  0.34953985  0.31903798  0.40895926     0.13200
C759        C  0.70470117  0.29253146  0.42962926     0.19300
C760        C  0.72246647  0.27439159  0.43718973    -0.18800
C761        C  0.72008894  0.24505035  0.43601642    -0.11000
C762        C  0.69944633  0.23312955  0.42736789     0.21600
C763        C  0.68198391  0.25133720  0.41966612    -0.20400
C764        C  0.68443112  0.28061336  0.42080297    -0.11200
C765        C  0.69477442  0.20209692  0.42621066    -0.15400
C766        C  0.70483642  0.18269551  0.43523642    -0.29200
C767        C  0.70638965  0.32353992  0.43197101    -0.03500
C768        C  0.69712578  0.34290018  0.42273264    -0.40000
H769        H  0.73820194  0.28297821  0.44410336     0.12700
H770        H  0.73444522  0.23200424  0.44192722     0.12400
H771        H  0.66583068  0.24286567  0.41295909     0.11800
H772        H  0.66973732  0.29370958  0.41510621     0.12000
H773        H  0.68080055  0.19504121  0.41800280     0.14800
H774        H  0.71794982  0.18887125  0.44389960     0.13500
H775        H  0.71505193  0.33064153  0.44180979     0.11200
H776        H  0.68952872  0.33639707  0.41260579     0.13200
C777        C  0.49079746  0.41395353  0.42825487     0.19300
C778        C  0.50796166  0.39955837  0.43783926    -0.18800
C779        C  0.53726135  0.40244233  0.43741074    -0.11000
C780        C  0.55006326  0.42017622  0.42744039     0.21600
C781        C  0.53290075  0.43440885  0.41781603    -0.20400
C782        C  0.50364547  0.43154150  0.41824869    -0.11200
C783        C  0.58109309  0.42405272  0.42645703    -0.15400
C784        C  0.59913162  0.41809795  0.43684836    -0.29200
C785        C  0.45966769  0.41101791  0.42940580    -0.03500
C786        C  0.44174691  0.41712264  0.41896724    -0.40000
H787        H  0.49866416  0.38588994  0.44565683     0.12700
H788        H  0.54964109  0.39044629  0.44479197     0.12400
H789        H  0.54215031  0.44817435  0.41002790     0.11800
H790        H  0.49130368  0.44367743  0.41091085     0.12000
H791        H  0.58940352  0.43283115  0.41680923     0.14800
H792        H  0.59160581  0.41014962  0.44678180     0.13500
H793        H  0.45118329  0.40324123  0.43922045     0.11200
H794        H  0.44955457  0.42366689  0.40884261     0.13200
C795        C  0.25223403  0.48423773  0.63495394     0.19300
C796        C  0.27234731  0.50525027  0.63724807    -0.18800
C797        C  0.28688598  0.51759517  0.62606547    -0.11000
C798        C  0.28135115  0.50936425  0.61226235     0.21600
C799        C  0.26065921  0.48885860  0.60997293    -0.20400
C800        C  0.24633268  0.47633343  0.62116358    -0.11200
C801        C  0.29587364  0.52221454  0.59997391    -0.15400
C802        C  0.32077484  0.53561577  0.60063225    -0.29200
C803        C  0.23717090  0.47161540  0.64708981    -0.03500
C804        C  0.22800324  0.44482934  0.64720873    -0.40000
H805        H  0.27695680  0.51202065  0.64775184     0.12700
H806        H  0.30196378  0.53392752  0.62831693     0.12400
H807        H  0.25560127  0.48242321  0.59946642     0.11800
H808        H  0.23030691  0.46085459  0.61896514     0.12000
H809        H  0.28605290  0.51969917  0.58984920     0.14800
H810        H  0.33185995  0.53728300  0.61043878     0.13500
H811        H  0.23464862  0.48432679  0.65639909     0.11200
H812        H  0.23191587  0.43136752  0.63829648     0.13200
C813        C  0.33511347  0.76278057  0.56946891     0.19300
C814        C  0.32557407  0.74518717  0.55876320    -0.18800
C815        C  0.32864052  0.71587147  0.55969340    -0.11000
C816        C  0.34136744  0.70336538  0.57143420     0.21600
C817        C  0.35056192  0.72090026  0.58221985    -0.20400
C818        C  0.34750701  0.75019094  0.58129506    -0.11200
C819        C  0.34727300  0.67254005  0.57248562    -0.15400
C820        C  0.33505498  0.65278105  0.56452558    -0.29200
C821        C  0.33333485  0.79397406  0.56741681    -0.03500
C822        C  0.33814189  0.81300277  0.57748987    -0.40000
H823        H  0.31619582  0.75420353  0.54948046     0.12700
H824        H  0.32184217  0.70335266  0.55096205     0.12400
H825        H  0.36066955  0.71192181  0.59132426     0.11800
H826        H  0.35577303  0.76265230  0.58970892     0.12000
H827        H  0.36265711  0.66581116  0.58017616     0.14800
H828        H  0.31893304  0.65842668  0.55706128     0.13500
H829        H  0.32829486  0.80164311  0.55702746     0.11200
H830        H  0.34253580  0.80635572  0.58806575     0.13200
C831        C  0.33425014  0.46777196  0.48464933     0.19300
C832        C  0.33957836  0.45541561  0.49770546    -0.18800
C833        C  0.33923952  0.47169311  0.50984144    -0.11000
C834        C  0.33349247  0.50082952  0.50917568     0.21600
C835        C  0.32661173  0.51282004  0.49621812    -0.20400
C836        C  0.32698107  0.49656299  0.48409642    -0.11200
C837        C  0.33477410  0.51951448  0.52161061    -0.15400
C838        C  0.34936777  0.51310689  0.53321727    -0.29200
C839        C  0.33650438  0.45010524  0.47187827    -0.03500
C840        C  0.34213830  0.46097905  0.45918712    -0.40000
H841        H  0.34459775  0.43317211  0.49849193     0.12700
H842        H  0.34350263  0.46128611  0.51965878     0.12400
H843        H  0.32148500  0.53503139  0.49541377     0.11800
H844        H  0.32149871  0.50669479  0.47435094     0.12000
H845        H  0.32488160  0.54015122  0.52082042     0.14800
H846        H  0.36051328  0.49322655  0.53410483     0.13500
H847        H  0.33513403  0.42735694  0.47307890     0.11200
H848        H  0.34524329  0.48346678  0.45789119     0.13200
C849        C  0.79751930  0.50779566  0.63852979     0.19300
C850        C  0.78278277  0.53316832  0.64063483    -0.18800
C851        C  0.76833764  0.54635161  0.62967743    -0.11000
C852        C  0.76835036  0.53441554  0.61627431     0.21600
C853        C  0.78363932  0.50944710  0.61409341    -0.20400
C854        C  0.79807163  0.49628275  0.62502801    -0.11200
C855        C  0.75351670  0.54747586  0.60418128    -0.15400
C856        C  0.73289176  0.56687560  0.60526249    -0.29200
C857        C  0.81209342  0.49433281  0.65064208    -0.03500
C858        C  0.82135349  0.46744989  0.65080467    -0.40000
H859        H  0.78230434  0.54278664  0.65083910     0.12700
H860        H  0.75759623  0.56601980  0.63177401     0.12400
H861        H  0.78439518  0.49998816  0.60384730     0.11800
H862        H  0.80981286  0.47733687  0.62270726     0.12000
H863        H  0.75917782  0.53992668  0.59385831     0.14800
H864        H  0.72566628  0.57402584  0.61538533     0.13500
H865        H  0.81434554  0.50678479  0.66003921     0.11200
H866        H  0.81866833  0.45402179  0.64182743     0.13200
C867        C  0.68236508  0.79159667  0.57719926     0.19300
C868        C  0.69897598  0.77416905  0.58572765    -0.18800
C869        C  0.69881207  0.74488703  0.58400761    -0.11000
C870        C  0.68145690  0.73253840  0.57392267     0.21600
C871        C  0.66437245  0.74993225  0.56562641    -0.20400
C872        C  0.66500364  0.77919627  0.56713154    -0.11200
C873        C  0.67926725  0.70157887  0.57241210    -0.15400
C874        C  0.70107822  0.68381535  0.57422924    -0.29200
C875        C  0.68226714  0.82248358  0.57947434    -0.03500
C876        C  0.67935864  0.84107526  0.56896112    -0.40000
H877        H  0.71213655  0.78325542  0.59370181     0.12700
H878        H  0.71161534  0.73191919  0.59082890     0.12400
H879        H  0.65049167  0.74082532  0.55796030     0.11800
H880        H  0.65130999  0.79202480  0.56068279     0.12000
H881        H  0.65908211  0.69319949  0.56917446     0.14800
H882        H  0.72188617  0.69187316  0.57653624     0.13500
H883        H  0.68519619  0.83010118  0.59002788     0.11200
H884        H  0.67827559  0.83371243  0.55827972     0.13200
C885        C  0.70093793  0.50305814  0.48753140     0.19300
C886        C  0.69569085  0.53194884  0.48937781    -0.18800
C887        C  0.69878670  0.54441090  0.50247559    -0.11000
C888        C  0.70690717  0.52805142  0.51407818     0.21600
C889        C  0.71220985  0.49920407  0.51221050    -0.20400
C890        C  0.70936858  0.48681355  0.49910683    -0.11200
C891        C  0.70703673  0.53948818  0.52847498    -0.15400
C892        C  0.70982342  0.56697904  0.53151456    -0.29200
C893        C  0.69550051  0.49020160  0.47369327    -0.03500
C894        C  0.70778690  0.46617338  0.46932791    -0.40000
H895        H  0.68875401  0.54485651  0.48068234     0.12700
H896        H  0.69363519  0.56651448  0.50355271     0.12400
H897        H  0.71798877  0.48603063  0.52101616     0.11800
H898        H  0.71273478  0.46433654  0.49824372     0.12000
H899        H  0.70378795  0.52455507  0.53696053     0.14800
H900        H  0.71433152  0.58227348  0.52336559     0.13500
H901        H  0.68087892  0.50106060  0.46680410     0.11200
H902        H  0.72349037  0.45566356  0.47569761     0.13200
C903        C  0.49685948  0.57367843  0.56868122     0.19300
C904        C  0.51425496  0.56623036  0.57993536    -0.18800
C905        C  0.54328633  0.57103571  0.57938966    -0.11000
C906        C  0.55562268  0.58332187  0.56747817     0.21600
C907        C  0.53830544  0.59080710  0.55625439    -0.20400
C908        C  0.50937041  0.58583843  0.55674753    -0.11200
C909        C  0.58617507  0.58957522  0.56645971    -0.15400
C910        C  0.60606062  0.57619514  0.57395505    -0.29200
C911        C  0.46598379  0.56842652  0.56987473    -0.03500
C912        C  0.44677925  0.57883316  0.56092058    -0.40000
H913        H  0.50530202  0.55692063  0.58927496     0.12700
H914        H  0.55577397  0.56564062  0.58841770     0.12400
H915        H  0.54726297  0.60033431  0.54696686     0.11800
H916        H  0.49724698  0.59142855  0.54765584     0.12000
H917        H  0.59264200  0.60543994  0.55889547     0.14800
H918        H  0.60050051  0.55945661  0.58117929     0.13500
H919        H  0.45863909  0.55616532  0.57876749     0.11200
H920        H  0.45301040  0.59191960  0.55217994     0.13200
C921        C  0.76709120  0.49633631  0.39016869     0.19300
C922        C  0.79380542  0.48855896  0.38515218    -0.18800
C923        C  0.80804383  0.50540671  0.37540097    -0.11000
C924        C  0.79584642  0.53061536  0.37042262     0.21600
C925        C  0.76952272  0.53880804  0.37576251    -0.20400
C926        C  0.75528228  0.52195739  0.38549223    -0.11200
C927        C  0.80974372  0.54909251  0.35981168    -0.15400
C928        C  0.83041898  0.54042684  0.35117397    -0.29200
C929        C  0.75273035  0.47760786  0.40051947    -0.03500
C930        C  0.72491400  0.47854867  0.40325688    -0.40000
H931        H  0.80367987  0.46923873  0.38874378     0.12700
H932        H  0.82866582  0.49865792  0.37196746     0.12400
H933        H  0.75978735  0.55830130  0.37231273     0.11800
H934        H  0.73526257  0.52940963  0.38941629     0.12000
H935        H  0.80149835  0.57035562  0.35852970     0.14800
H936        H  0.83827465  0.51897235  0.35168787     0.13500
H937        H  0.76550724  0.46188854  0.40586194     0.11200
H938        H  0.71135472  0.49317546  0.39770908     0.13200
C939        C  0.74814458  0.03341426  0.38696699     0.19300
C940        C  0.76862931  0.04335811  0.37756657    -0.18800
C941        C  0.78140194  0.02517472  0.36792421    -0.11000
C942        C  0.77404766  0.99646039  0.36755745     0.21600
C943        C  0.75409081  0.98644345  0.37717144    -0.20400
C944        C  0.74130395  0.00456823  0.38674977    -0.11200
C945        C  0.78740605  0.97584082  0.35787959    -0.15400
C946        C  0.80116743  0.98271961  0.34604972    -0.29200
C947        C  0.73521500  0.05337282  0.39716593    -0.03500
C948        C  0.71077261  0.04833567  0.40388671    -0.40000
H949        H  0.77475716  0.06532878  0.37766657     0.12700
H950        H  0.79731861  0.03362356  0.36101760     0.12400
H951        H  0.74838597  0.96434952  0.37731709     0.11800
H952        H  0.72656318  0.99560456  0.39411721     0.12000
H953        H  0.78525775  0.95363437  0.36053314     0.14800
H954        H  0.80297866  0.00454455  0.34275342     0.13500
H955        H  0.74614573  0.07301486  0.39915203     0.11200
H956        H  0.69892020  0.02937624  0.40179355     0.13200
C957        C  0.84989230  0.78553888  0.32138359     0.19300
C958        C  0.86795964  0.76973959  0.31279515    -0.18800
C959        C  0.86927077  0.74036343  0.31390533    -0.11000
C960        C  0.85231305  0.72593727  0.32362651     0.21600
C961        C  0.83447408  0.74167148  0.33232938    -0.20400
C962        C  0.83309898  0.77108836  0.33120354    -0.11200
C963        C  0.85313173  0.69469725  0.32523465    -0.15400
C964        C  0.86154507  0.67717469  0.31504940    -0.29200
C965        C  0.84940709  0.81681175  0.31955798    -0.03500
C966        C  0.83492322  0.83496296  0.32765240    -0.40000
H967        H  0.88129258  0.78018720  0.30521121     0.12700
H968        H  0.88397736  0.72920358  0.30728607     0.12400
H969        H  0.82130964  0.73112313  0.33995543     0.11800
H970        H  0.81871226  0.78210165  0.33801218     0.12000
H971        H  0.84550286  0.68573828  0.33498356     0.14800
H972        H  0.86774628  0.68543358  0.30493721     0.13500
H973        H  0.86201345  0.82543421  0.31109197     0.11200
H974        H  0.82235028  0.82763892  0.33635815     0.13200
C975        C  0.75654367  0.92714661  0.26757724     0.19300
C976        C  0.72748716  0.93252933  0.26677533    -0.18800
C977        C  0.71354554  0.93208898  0.25391421    -0.11000
C978        C  0.72842681  0.92585048  0.24159318     0.21600
C979        C  0.75740467  0.92029217  0.24244521    -0.20400
C980        C  0.77134514  0.92101978  0.25523387    -0.11200
C981        C  0.71451614  0.92288322  0.22780306    -0.15400
C982        C  0.68980183  0.93488374  0.22422527    -0.29200
C983        C  0.77046450  0.92622532  0.28146066    -0.03500
C984        C  0.79812160  0.93102488  0.28325797    -0.40000
H985        H  0.71550890  0.93687117  0.27614568     0.12700
H986        H  0.69106412  0.93574562  0.25374653     0.12400
H987        H  0.76929735  0.91501606  0.23316955     0.11800
H988        H  0.79352718  0.91581787  0.25542979     0.12000
H989        H  0.72565396  0.91045680  0.22004332     0.14800
H990        H  0.67862413  0.94847934  0.23143923     0.13500
H991        H  0.75743446  0.92164961  0.29052432     0.11200
H992        H  0.81119512  0.93729633  0.27448287     0.13200
C993        C  0.76777574  0.57882148  0.27141471     0.19300
C994        C  0.73826310  0.57807980  0.27169568    -0.18800
C995        C  0.72288271  0.57938750  0.25929294    -0.11000
C996        C  0.73683204  0.58181962  0.24637269     0.21600
C997        C  0.76626978  0.58305508  0.24613128    -0.20400
C998        C  0.78161710  0.58142085  0.25848361    -0.11200
C999        C  0.72145152  0.58463795  0.23302279    -0.15400
C1000       C  0.69592250  0.57350129  0.23089937    -0.29200
C1001       C  0.78359916  0.57942959  0.28472579    -0.03500
C1002       C  0.81030778  0.57023396  0.28579309    -0.40000
H1003       H  0.72711095  0.57672670  0.28153532     0.12700
H1004       H  0.70013288  0.57933189  0.25990265     0.12400
H1005       H  0.77743941  0.58543537  0.23634476     0.11800
H1006       H  0.80427559  0.58319603  0.25787397     0.12000
H1007       H  0.73187133  0.59570076  0.22451540     0.14800
H1008       H  0.68565817  0.56123760  0.23901276     0.13500
H1009       H  0.77325726  0.58853692  0.29377709     0.11200
H1010       H  0.82039676  0.55972881  0.27706976     0.13200
C1011       C  0.64956889  0.78345443  0.18922209     0.19300
C1012       C  0.63483235  0.76702573  0.19900196    -0.18800
C1013       C  0.63580464  0.73758543  0.19849910    -0.11000
C1014       C  0.65193348  0.72374046  0.18824142     0.21600
C1015       C  0.66661471  0.74015028  0.17843501    -0.20400
C1016       C  0.66562124  0.76961353  0.17892891    -0.11200
C1017       C  0.65362447  0.69242952  0.18719901    -0.15400
C1018       C  0.64619091  0.67473344  0.19756324    -0.29200
C1019       C  0.64811299  0.81476486  0.19043938    -0.03500
C1020       C  0.65651052  0.83286652  0.18041736    -0.40000
H1021       H  0.62228872  0.77702691  0.20703413     0.12700
H1022       H  0.62347120  0.72599245  0.20606364     0.12400
H1023       H  0.67918361  0.73012092  0.17041677     0.11800
H1024       H  0.67788351  0.78121595  0.17134884     0.12000
H1025       H  0.66195727  0.68358376  0.17760062     0.14800
H1026       H  0.63883369  0.68273797  0.20748238     0.13500
H1027       H  0.63941442  0.82333292  0.20002339     0.11200
H1028       H  0.66451393  0.82527963  0.17053888     0.13200
C1029       C  0.28671803  0.49115309  0.37933036     0.19300
C1030       C  0.29665574  0.51660639  0.37366572    -0.18800
C1031       C  0.27964439  0.53329425  0.36505812    -0.11000
C1032       C  0.25206051  0.52490412  0.36184217     0.21600
C1033       C  0.24216711  0.49929207  0.36736557    -0.20400
C1034       C  0.25920085  0.48258703  0.37602825    -0.11200
C1035       C  0.23371839  0.54138335  0.35215677    -0.15400
C1036       C  0.23746861  0.56891295  0.34924303    -0.29200
C1037       C  0.30611187  0.47430189  0.38834903    -0.03500
C1038       C  0.29820642  0.45292211  0.39679130    -0.40000
H1039       H  0.31783682  0.52363336  0.37587201     0.12700
H1040       H  0.28857461  0.55231945  0.36069252     0.12400
H1041       H  0.22116687  0.49208251  0.36490627     0.11800
H1042       H  0.25080756  0.46287749  0.37985785     0.12000
H1043       H  0.21632938  0.53041986  0.34728345     0.14800
H1044       H  0.25367726  0.58081528  0.35449457     0.13500
H1045       H  0.32806380  0.48065656  0.38845022     0.11200
H1046       H  0.27642116  0.44637345  0.39739198     0.13200
C1047       C  0.05694843  0.58744329  0.32241003     0.19300
C1048       C  0.04073163  0.56932178  0.31419368    -0.18800
C1049       C  0.01139751  0.56843732  0.31562317    -0.11000
C1050       C  0.99745876  0.58605514  0.32522627     0.21600
C1051       C  0.01371155  0.60382263  0.33359622    -0.20400
C1052       C  0.04301066  0.60471633  0.33216688    -0.11200
C1053       C  0.96618701  0.58703938  0.32674600    -0.15400
C1054       C  0.94819704  0.57781880  0.31698782    -0.29200
C1055       C  0.08799849  0.58867563  0.31999611    -0.03500
C1056       C  0.10628431  0.60004257  0.32903892    -0.40000
H1057       H  0.05081312  0.55577827  0.30660288     0.12700
H1058       H  0.99991525  0.55382366  0.30920431     0.12400
H1059       H  0.00362652  0.61763624  0.34106668     0.11800
H1060       H  0.05436845  0.61958596  0.33848577     0.12000
H1061       H  0.95760390  0.59734579  0.33592184     0.14800
H1062       H  0.95597595  0.56838515  0.30746019     0.13500
H1063       H  0.09610010  0.58009796  0.31028864     0.11200
H1064       H  0.09905621  0.60808748  0.33897868     0.13200
C1065       C  0.26592111  0.03072518  0.39005838     0.19300
C1066       C  0.23831697  0.03761992  0.38609989    -0.18800
C1067       C  0.22534599  0.02367454  0.37500609    -0.11000
C1068       C  0.23973258  0.00224969  0.36773442     0.21600
C1069       C  0.26714429  0.99510818  0.37188589    -0.20400
C1070       C  0.28011545  0.00912630  0.38287785    -0.11200
C1071       C  0.22676938  0.98568453  0.35630056    -0.15400
C1072       C  0.20357385  0.99339391  0.34920306    -0.29200
C1073       C  0.27911362  0.04561617  0.40197583    -0.03500
C1074       C  0.30707891  0.04942863  0.40285811    -0.40000
H1075       H  0.22678776  0.05388739  0.39158948     0.12700
H1076       H  0.20393638  0.02935878  0.37243161     0.12400
H1077       H  0.27857020  0.97842869  0.36664902     0.11800
H1078       H  0.30103216  0.00249968  0.38591465     0.12000
H1079       H  0.23715272  0.96605883  0.35348545     0.14800
H1080       H  0.19298510  0.01318726  0.35133713     0.13500
H1081       H  0.26546212  0.05440649  0.40996950     0.11200
H1082       H  0.32074530  0.04236691  0.39447980     0.13200
C1083       C  0.97358514  0.93870743  0.32043061     0.19300
C1084       C  0.99055367  0.95009359  0.30980469    -0.18800
C1085       C  0.01988427  0.95034517  0.31104362    -0.11000
C1086       C  0.03295230  0.93904660  0.32297448     0.21600
C1087       C  0.01603322  0.92762107  0.33358454    -0.20400
C1088       C  0.98672046  0.92746206  0.33237645    -0.11200
C1089       C  0.06405083  0.93690972  0.32430570    -0.15400
C1090       C  0.08227407  0.95360482  0.31740910    -0.29200
C1091       C  0.94257536  0.93741493  0.31825060    -0.03500
C1092       C  0.92374259  0.93301534  0.32854648    -0.40000
H1093       H  0.98108985  0.95850904  0.30040878     0.12700
H1094       H  0.03217311  0.95855346  0.30243452     0.12400
H1095       H  0.02557020  0.91841025  0.34278621     0.11800
H1096       H  0.97468628  0.91766989  0.34064772     0.12000
H1097       H  0.07229183  0.92094949  0.33138527     0.14800
H1098       H  0.07475803  0.97069753  0.31083665     0.13500
H1099       H  0.93492341  0.94013806  0.30766704     0.11200
H1100       H  0.93045851  0.93122644  0.33929197     0.13200
C1101       C  0.19728852  0.74862440  0.32625917     0.19300
C1102       C  0.19111977  0.76544268  0.33786378    -0.18800
C1103       C  0.19030535  0.79485937  0.33663031    -0.11000
C1104       C  0.19590869  0.80802511  0.32372056     0.21600
C1105       C  0.20339700  0.79114640  0.31231300    -0.20400
C1106       C  0.20409206  0.76181756  0.31353978    -0.11200
C1107       C  0.19410972  0.83906616  0.32152562    -0.15400
C1108       C  0.18091137  0.85701558  0.33021250    -0.29200
C1109       C  0.19681060  0.71745771  0.32771356    -0.03500
C1110       C  0.19029584  0.70043960  0.31704870    -0.40000
H1111       H  0.18639371  0.75577115  0.34784618     0.12700
H1112       H  0.18537219  0.80699699  0.34582059     0.12400
H1113       H  0.20833993  0.80066791  0.30232577     0.11800
H1114       H  0.21010709  0.74958013  0.30451361     0.12000
H1115       H  0.20270344  0.84735712  0.31183080     0.14800
H1116       H  0.17115096  0.84961435  0.33975986     0.13500
H1117       H  0.20080345  0.70834660  0.33794186     0.11200
H1118       H  0.18462825  0.70929244  0.30698366     0.13200
C1119       C  0.51851773  0.58370789  0.18210580     0.19300
C1120       C  0.50485111  0.59150641  0.16974466    -0.18800
C1121       C  0.47552741  0.59234195  0.16904434    -0.11000
C1122       C  0.45903416  0.58581314  0.18083879     0.21600
C1123       C  0.47269229  0.57750729  0.19315963    -0.20400
C1124       C  0.50209090  0.57656897  0.19384403    -0.11200
C1125       C  0.42772814  0.58763557  0.18080472    -0.15400
C1126       C  0.41281584  0.60152200  0.17101223    -0.29200
C1127       C  0.54976671  0.58484802  0.18239009    -0.03500
C1128       C  0.56576704  0.57266120  0.19225934    -0.40000
H1129       H  0.51694760  0.59704808  0.16054903     0.12700
H1130       H  0.46612859  0.59800154  0.15918611     0.12400
H1131       H  0.46057371  0.57229809  0.20239641     0.11800
H1132       H  0.51165046  0.57101745  0.20369445     0.12000
H1133       H  0.41653726  0.57821876  0.18955001     0.14800
H1134       H  0.42316751  0.61208745  0.16239726     0.13500
H1135       H  0.56010846  0.59657565  0.17408170     0.11200
H1136       H  0.55642223  0.56018050  0.20053984     0.13200
C1137       C  0.23835246  0.58497434  0.25832285     0.19300
C1138       C  0.22398869  0.58828297  0.24566153    -0.18800
C1139       C  0.23850399  0.58748941  0.23294974    -0.11000
C1140       C  0.26785869  0.58336720  0.23262710     0.21600
C1141       C  0.28194714  0.57834862  0.24522755    -0.20400
C1142       C  0.26743837  0.57915630  0.25793803    -0.11200
C1143       C  0.28457557  0.58481601  0.21948207    -0.15400
C1144       C  0.27602806  0.59924010  0.20813433    -0.29200
C1145       C  0.22237181  0.58798007  0.27164694    -0.03500
C1146       C  0.23458311  0.59504524  0.28376241    -0.40000
H1147       H  0.20150602  0.59214167  0.24561160     0.12700
H1148       H  0.22660872  0.59022398  0.22345457     0.12400
H1149       H  0.30443432  0.57449520  0.24527498     0.11800
H1150       H  0.27916039  0.57524013  0.26738826     0.12000
H1151       H  0.30554742  0.57557680  0.21951021     0.14800
H1152       H  0.25577971  0.60982243  0.20804326     0.13500
H1153       H  0.19959140  0.58617957  0.27128807     0.11200
H1154       H  0.25707501  0.59862135  0.28422063     0.13200
C1155       C  0.46142896  0.94526755  0.17567105     0.19300
C1156       C  0.47943725  0.93118997  0.16634545    -0.18800
C1157       C  0.50845675  0.92963211  0.16872388    -0.11000
C1158       C  0.52035840  0.94226733  0.18055430     0.21600
C1159       C  0.50242188  0.95650832  0.18984040    -0.20400
C1160       C  0.47337389  0.95808898  0.18745998    -0.11200
C1161       C  0.55090532  0.93971373  0.18402497    -0.15400
C1162       C  0.57107505  0.93263436  0.17475957    -0.29200
C1163       C  0.43044680  0.94460446  0.17296664    -0.03500
C1164       C  0.41078904  0.95857535  0.18042730    -0.40000
H1165       H  0.47094230  0.92085674  0.15724845     0.12700
H1166       H  0.52118933  0.91776221  0.16146099     0.12400
H1167       H  0.51089939  0.96623647  0.19910336     0.11800
H1168       H  0.46056774  0.96884618  0.19508533     0.12000
H1169       H  0.55706446  0.94397042  0.19470308     0.14800
H1170       H  0.56589111  0.92944207  0.16389466     0.13500
H1171       H  0.42336658  0.93126958  0.16450774     0.11200
H1172       H  0.41669131  0.97237420  0.18886183     0.13200
C1173       C  0.23650533  0.95505355  0.26120833     0.19300
C1174       C  0.25514221  0.97561919  0.25611462    -0.18800
C1175       C  0.26689931  0.97334710  0.24271440    -0.11000
C1176       C  0.26049992  0.95012357  0.23421677     0.21600
C1177       C  0.24219205  0.92944242  0.23943403    -0.20400
C1178       C  0.23032617  0.93182191  0.25271682    -0.11200
C1179       C  0.27366860  0.94539142  0.22029232    -0.15400
C1180       C  0.28564326  0.96553107  0.21232386    -0.29200
C1181       C  0.22477371  0.95746542  0.27559039    -0.03500
C1182       C  0.19974703  0.94636080  0.27919220    -0.40000
H1183       H  0.26062288  0.99348003  0.26252750     0.12700
H1184       H  0.28150097  0.98935859  0.23925119     0.12400
H1185       H  0.23723318  0.91111805  0.23323904     0.11800
H1186       H  0.21692982  0.91497021  0.25642125     0.12000
H1187       H  0.27309363  0.92400917  0.21629118     0.14800
H1188       H  0.28566926  0.98734643  0.21564839     0.13500
H1189       H  0.23690468  0.96872114  0.28334138     0.11200
H1190       H  0.18684480  0.93636001  0.27135018     0.13200
C1191       C  0.32524857  0.74985652  0.16747039     0.19300
C1192       C  0.30515950  0.76759776  0.16124402    -0.18800
C1193       C  0.30656268  0.79693158  0.16281603    -0.11000
C1194       C  0.32850948  0.80925406  0.17050266     0.21600
C1195       C  0.34912167  0.79144003  0.17629571    -0.20400
C1196       C  0.34761570  0.76217128  0.17478115    -0.11200
C1197       C  0.33063557  0.84024024  0.17309005    -0.15400
C1198       C  0.31458929  0.86020946  0.16693091    -0.29200
C1199       C  0.32242300  0.71869627  0.16615603    -0.03500
C1200       C  0.33176927  0.70065586  0.17599175    -0.40000
H1201       H  0.28787269  0.75867470  0.15543539     0.12700
H1202       H  0.29008314  0.80956465  0.15819628     0.12400
H1203       H  0.36647082  0.80020459  0.18211817     0.11800
H1204       H  0.36409814  0.74929381  0.17929859     0.05600
H1205       H  0.34663619  0.84702507  0.18039708     0.14800
H1206       H  0.29883875  0.85465339  0.15931543     0.13500
H1207       H  0.31125829  0.71047643  0.15719873     0.11200
H1208       H  0.34147889  0.70870397  0.18537497     0.13200
C1209       C  0.28132667  0.00077089  0.86786722     0.19300
C1210       C  0.26395040  0.97790246  0.86456834    -0.18800
C1211       C  0.24663654  0.96548658  0.87471221    -0.11000
C1212       C  0.24645777  0.97557233  0.88848067     0.21600
C1213       C  0.26466944  0.99768985  0.89191618    -0.20400
C1214       C  0.28183447  0.01024145  0.88175076    -0.11200
C1215       C  0.22800650  0.96335489  0.89955869    -0.15400
C1216       C  0.20351565  0.95022711  0.89692715    -0.29200
C1217       C  0.29866960  0.01395846  0.85659710    -0.03500
C1218       C  0.30761973  0.04084233  0.85698525    -0.40000
H1219       H  0.26348060  0.96983474  0.85404008     0.12700
H1220       H  0.23368930  0.94783485  0.87173498     0.12400
H1221       H  0.26536859  0.00554134  0.90248487     0.11800
H1222       H  0.29563424  0.02711975  0.88487407     0.12000
H1223       H  0.23404004  0.96669648  0.91033873     0.14800
H1224       H  0.19614533  0.94808201  0.88630441     0.13500
H1225       H  0.30271195  0.00167414  0.84726869     0.11200
H1226       H  0.30240425  0.05406478  0.86581715     0.13200
C1227       C  0.73063697  0.00643089  0.86575968     0.19300
C1228       C  0.72856745  0.01373401  0.87988035    -0.18800
C1229       C  0.74256572  0.99798602  0.89011803    -0.11000
C1230       C  0.75916461  0.97448532  0.88644009     0.21600
C1231       C  0.76123935  0.96721080  0.87230282    -0.20400
C1232       C  0.74714402  0.98290797  0.86206872    -0.11200
C1233       C  0.77578313  0.95797311  0.89684847    -0.15400
C1234       C  0.77062105  0.95811934  0.91065206    -0.29200
C1235       C  0.71681102  0.02490846  0.85519425    -0.03500
C1236       C  0.71000718  0.01646307  0.84227575    -0.40000
H1237       H  0.71630810  0.03195055  0.88299980     0.12700
H1238       H  0.74092893  0.00493560  0.90079816     0.12400
H1239       H  0.77411676  0.94946410  0.86913295     0.11800
H1240       H  0.75000509  0.97702219  0.85128344     0.12000
H1241       H  0.79273275  0.94472114  0.89293806     0.14800
H1242       H  0.75298968  0.96992116  0.91485539     0.13500
H1243       H  0.71168056  0.04633944  0.85827063     0.11200
H1244       H  0.71353014  0.99482166  0.83911472     0.13200
C1245       C  0.01380377  0.91981897  0.93284812     0.19300
C1246       C  0.99726870  0.89786359  0.93821804    -0.18800
C1247       C  0.96790232  0.89942577  0.93786353    -0.11000
C1248       C  0.95419203  0.92342725  0.93238761     0.21600
C1249       C  0.97075929  0.94539813  0.92696663    -0.20400
C1250       C  0.00022364  0.94372308  0.92722843    -0.11200
C1251       C  0.92284989  0.92603585  0.93195416    -0.15400
C1252       C  0.90559822  0.91044166  0.94002434    -0.29200
C1253       C  0.04500589  0.91715785  0.93367786    -0.03500
C1254       C  0.06297702  0.93076746  0.92513180    -0.40000
H1255       H  0.00713608  0.87918843  0.94256105     0.12700
H1256       H  0.95624199  0.88149219  0.94171815     0.12400
H1257       H  0.96086667  0.96409774  0.92265655     0.11800
H1258       H  0.01219161  0.96139933  0.92327339     0.12000
H1259       H  0.91370937  0.94169812  0.92499559     0.14800
H1260       H  0.91416186  0.89553460  0.94748180     0.13500
H1261       H  0.05350516  0.90247663  0.94132613     0.11200
H1262       H  0.05510427  0.94444875  0.91692795     0.13200
C1263       C  0.25271698  0.01720975  0.12914568     0.19300
C1264       C  0.22331472  0.01664152  0.12778768    -0.18800
C1265       C  0.20980212  0.03144138  0.11706783    -0.11000
C1266       C  0.22534163  0.04765499  0.10744761     0.21600
C1267       C  0.25478783  0.04823891  0.10874479    -0.20400
C1268       C  0.26836524  0.03338009  0.11951193    -0.11200
C1269       C  0.21152427  0.06321585  0.09571442    -0.15400
C1270       C  0.18453303  0.07204969  0.09619011    -0.29200
C1271       C  0.26571176  0.00086412  0.14085939    -0.03500
C1272       C  0.29318645  0.99388220  0.14176224    -0.40000
H1273       H  0.21067373  0.00434252  0.13497674     0.12700
H1274       H  0.18720122  0.02957236  0.11622487     0.12400
H1275       H  0.26731799  0.06043846  0.10146780     0.11800
H1276       H  0.29099286  0.03492839  0.12027789     0.12000
H1277       H  0.22403881  0.06781268  0.08648584     0.14800
H1278       H  0.17213465  0.06886318  0.10557019     0.13500
H1279       H  0.25161026  0.99337449  0.14900170     0.11200
H1280       H  0.30790921  0.00023917  0.13370297     0.13200
C1281       C  0.16174107  0.99270705  0.98578373     0.19300
C1282       C  0.15496597  0.98366281  0.99933403    -0.18800
C1283       C  0.15552385  0.00241343  0.01053968    -0.11000
C1284       C  0.16283627  0.03088175  0.00845914     0.21600
C1285       C  0.17073710  0.03966059  0.99500871    -0.20400
C1286       C  0.17020939  0.02088676  0.98379453    -0.11200
C1287       C  0.16262564  0.05193151  0.01998153    -0.15400
C1288       C  0.14789949  0.04851201  0.03189012    -0.29200
C1289       C  0.16007262  0.97199920  0.97415194    -0.03500
C1290       C  0.15855195  0.97939734  0.96061041    -0.40000
H1291       H  0.14893690  0.96198427  0.00125695     0.12700
H1292       H  0.15040865  0.99432065  0.02078600     0.12400
H1293       H  0.17702752  0.06127941  0.99312200     0.11800
H1294       H  0.17668782  0.02860846  0.97367010     0.12000
H1295       H  0.17392404  0.07155048  0.01832842     0.14800
H1296       H  0.13537483  0.02975801  0.03356912     0.13500
H1297       H  0.15883850  0.94976847  0.97688773     0.11200
H1298       H  0.15830566  0.00141674  0.95755006     0.13200
C1299       C  0.71502134  0.01054183  0.14428115     0.19300
C1300       C  0.70195840  0.02810104  0.13439863    -0.18800
C1301       C  0.71799716  0.04391199  0.12491480    -0.11000
C1302       C  0.74761844  0.04266817  0.12518234     0.21600
C1303       C  0.76064241  0.02559527  0.13529570    -0.20400
C1304       C  0.74460468  0.00963635  0.14470142    -0.11200
C1305       C  0.76567688  0.05899521  0.11528108    -0.15400
C1306       C  0.75684095  0.06823309  0.10273392    -0.29200
C1307       C  0.69726199  0.99407549  0.15420939    -0.03500
C1308       C  0.70551638  0.96928102  0.15974689    -0.40000
H1309       H  0.67922602  0.02947505  0.13396404     0.12700
H1310       H  0.70704552  0.05738938  0.11759149     0.12400
H1311       H  0.78337216  0.02446191  0.13587488     0.11800
H1312       H  0.75547096  0.99702817  0.15243541     0.12000
H1313       H  0.78761065  0.06197278  0.11805328     0.14800
H1314       H  0.73554094  0.06411244  0.09933395     0.13500
H1315       H  0.67615946  0.00179196  0.15641376     0.11200
H1316       H  0.72569005  0.96023025  0.15684929     0.13200
C1317       C  0.80948426  0.99149517  0.99427208     0.19300
C1318       C  0.80324942  0.02037971  0.99504051    -0.18800
C1319       C  0.80294272  0.03420698  0.00787073    -0.11000
C1320       C  0.80906835  0.01938902  0.02024836     0.21600
C1321       C  0.81550338  0.99056255  0.01947494    -0.20400
C1322       C  0.81560436  0.97668278  0.00665371    -0.11200
C1323       C  0.81085590  0.03368851  0.03394838    -0.15400
C1324       C  0.79677329  0.05752412  0.03694164    -0.29200
C1325       C  0.81125887  0.97805564  0.98033397    -0.03500
C1326       C  0.80832891  0.95021190  0.97827362    -0.40000
H1327       H  0.79891202  0.03236586  0.98565303     0.12700
H1328       H  0.79882792  0.05665580  0.00795648     0.12400
H1329       H  0.82075597  0.97879762  0.02881737     0.11800
H1330       H  0.82141156  0.95461605  0.00647601     0.12000
H1331       H  0.82425656  0.02420161  0.04186054     0.14800
H1332       H  0.78224042  0.06667070  0.02946768     0.13500
H1333       H  0.81478801  0.99173101  0.97137356     0.11200
H1334       H  0.80319289  0.93624015  0.98689655     0.13200
C1335       C  0.00600456  0.10788830  0.06970877     0.19300
C1336       C  0.98992032  0.08794773  0.07701628    -0.18800
C1337       C  0.96052168  0.08899286  0.07676351    -0.11000
C1338       C  0.94636204  0.11039085  0.06928740     0.21600
C1339       C  0.96254029  0.13040576  0.06200081    -0.20400
C1340       C  0.99197766  0.12926891  0.06221575    -0.11200
C1341       C  0.91501717  0.11283345  0.06878189    -0.15400
C1342       C  0.89712452  0.09597634  0.07584741    -0.29200
C1343       C  0.03723170  0.10608381  0.07052600    -0.03500
C1344       C  0.05465618  0.11713299  0.06087746    -0.40000
H1345       H  0.00017141  0.07131484  0.08290603     0.12700
H1346       H  0.94934496  0.07288497  0.08247605     0.12400
H1347       H  0.95236004  0.14720337  0.05619568     0.11800
H1348       H  0.00354619  0.14551382  0.05674533     0.12000
H1349       H  0.90620214  0.12948402  0.06228506     0.14800
H1350       H  0.90473255  0.07917171  0.08250717     0.13500
H1351       H  0.04621619  0.09420369  0.07916271     0.11200
H1352       H  0.04630370  0.12778840  0.05175077     0.13200
C1353       C  0.27677706  0.50268930  0.86191188     0.19300
C1354       C  0.25262069  0.51798063  0.85810016    -0.18800
C1355       C  0.23702285  0.53297009  0.86802763    -0.11000
C1356       C  0.24520434  0.53304667  0.88213348     0.21600
C1357       C  0.26999430  0.51867183  0.88584215    -0.20400
C1358       C  0.28563503  0.50371176  0.87589546    -0.11200
C1359       C  0.22879110  0.54786666  0.89325447    -0.15400
C1360       C  0.20208769  0.55691664  0.89167564    -0.29200
C1361       C  0.29181803  0.48601823  0.85098015    -0.03500
C1362       C  0.31019529  0.46501065  0.85372641    -0.40000
H1363       H  0.24552810  0.51805093  0.84738800     0.12700
H1364       H  0.21874643  0.54450823  0.86447391     0.12400
H1365       H  0.27717097  0.51875008  0.89653798     0.11800
H1366       H  0.30462933  0.49314831  0.87926940     0.12000
H1367       H  0.23873867  0.55048282  0.90334288     0.14800
H1368       H  0.19106591  0.55367996  0.88196387     0.13500
H1369       H  0.28630226  0.49017855  0.84017314     0.11200
H1370       H  0.31541711  0.45947715  0.86438382     0.13200
C1371       C  0.16694204  0.78768861  0.92174176     0.19300
C1372       C  0.15971796  0.77145771  0.91010121    -0.18800
C1373       C  0.16276299  0.74210912  0.91028877    -0.11000
C1374       C  0.17282696  0.72812517  0.92226460     0.21600
C1375       C  0.18084984  0.74440304  0.93375912    -0.20400
C1376       C  0.17784115  0.77379576  0.93356578    -0.11200
C1377       C  0.17466776  0.69676404  0.92335225    -0.15400
C1378       C  0.15981082  0.67912555  0.91528303    -0.29200
C1379       C  0.16129862  0.81865467  0.92126997    -0.03500
C1380       C  0.17160543  0.83751218  0.93036930    -0.40000
H1381       H  0.15144465  0.78152816  0.90081627     0.12700
H1382       H  0.15717895  0.73063211  0.90101215     0.12400
H1383       H  0.18875972  0.73426553  0.94310264     0.11800
H1384       H  0.18330131  0.78525606  0.94286164     0.12000
H1385       H  0.18710348  0.68789113  0.93180028     0.14800
H1386       H  0.14601473  0.68731764  0.90724780     0.13500
H1387       H  0.14784501  0.82633532  0.91292830     0.11200
H1388       H  0.18592704  0.83101796  0.93854318     0.13200
C1389       C  0.73291749  0.47684715  0.86727189     0.19300
C1390       C  0.72921819  0.47592032  0.88177579    -0.18800
C1391       C  0.74459399  0.49373541  0.89043945    -0.11000
C1392       C  0.76434745  0.51266095  0.88475819     0.21600
C1393       C  0.76827716  0.51334674  0.87025793    -0.20400
C1394       C  0.75261041  0.49579266  0.86157595    -0.11200
C1395       C  0.78221040  0.53071353  0.89372418    -0.15400
C1396       C  0.77368277  0.54014277  0.90623943    -0.29200
C1397       C  0.71740723  0.45650656  0.85847369    -0.03500
C1398       C  0.71024219  0.46190221  0.84517979    -0.40000
H1399       H  0.71450781  0.46120441  0.88642629     0.12700
H1400       H  0.74159352  0.49196076  0.90159354     0.12400
H1401       H  0.78363577  0.52741888  0.86564048     0.11800
H1402       H  0.75662873  0.49646989  0.85047060     0.12000
H1403       H  0.80272320  0.53697019  0.88976023     0.14800
H1404       H  0.75255840  0.53564466  0.90994283     0.13500
H1405       H  0.71126721  0.43656801  0.86319520     0.11200
H1406       H  0.71458825  0.48235884  0.84054955     0.13200
C1407       C  0.80435974  0.78024500  0.92963918     0.19300
C1408       C  0.81834811  0.76321773  0.91987467    -0.18800
C1409       C  0.81717658  0.73380966  0.92081303    -0.11000
C1410       C  0.80193927  0.72064811  0.93162608     0.21600
C1411       C  0.78762635  0.73764497  0.94128634    -0.20400
C1412       C  0.78873043  0.76707497  0.94032450    -0.11200
C1413       C  0.80249983  0.68956342  0.93390524    -0.15400
C1414       C  0.80942163  0.67075624  0.92399650    -0.29200
C1415       C  0.80872653  0.81132747  0.92896463    -0.03500
C1416       C  0.79305842  0.83038455  0.93591680    -0.40000
H1417       H  0.83084518  0.77272127  0.91164988     0.12700
H1418       H  0.82920621  0.72165160  0.91337785     0.12400
H1419       H  0.77603469  0.72810246  0.94981754     0.11800
H1420       H  0.77820646  0.77920602  0.94830852     0.12000
H1421       H  0.79747434  0.68187693  0.94430843     0.14800
H1422       H  0.81342892  0.67755220  0.91337497     0.13500
H1423       H  0.82633338  0.81881791  0.92272158     0.11200
H1424       H  0.77489328  0.82392360  0.94197630     0.13200
C1425       C  0.01815380  0.58696304  0.92735311     0.19300
C1426       C  0.00027239  0.60909569  0.93138454    -0.18800
C1427       C  0.97108407  0.60603821  0.93102208    -0.11000
C1428       C  0.95896755  0.58051917  0.92674193     0.21600
C1429       C  0.97673248  0.55845130  0.92253607    -0.20400
C1430       C  0.00601589  0.56146528  0.92293598    -0.11200
C1431       C  0.92795186  0.57663186  0.92629164    -0.15400
C1432       C  0.91032186  0.59064498  0.93480201    -0.29200
C1433       C  0.04909074  0.59175959  0.92792509    -0.03500
C1434       C  0.06864645  0.57423802  0.92260622    -0.40000
H1435       H  0.00892288  0.62904013  0.93472373     0.12700
H1436       H  0.95814801  0.62390933  0.93387395     0.12400
H1437       H  0.96791300  0.53864518  0.91911260     0.11800
H1438       H  0.01876274  0.54365086  0.91987747     0.12000
H1439       H  0.91948011  0.56139404  0.91902195     0.14800
H1440       H  0.91857475  0.60481462  0.94260710     0.13500
H1441       H  0.05612877  0.61123890  0.93267764     0.11200
H1442       H  0.06280621  0.55479299  0.91755753     0.13200
C1443       C  0.25847891  0.54894231  0.12490846     0.19300
C1444       C  0.23311582  0.55763702  0.11876114    -0.18800
C1445       C  0.21829160  0.53974359  0.10987339    -0.11000
C1446       C  0.22857798  0.51253509  0.10683791     0.21600
C1447       C  0.25430165  0.50409918  0.11275305    -0.20400
C1448       C  0.26910323  0.52200194  0.12166085    -0.11200
C1449       C  0.21369324  0.49253441  0.09740403    -0.15400
C1450       C  0.18702964  0.49600536  0.09294668    -0.29200
C1451       C  0.27326129  0.56870163  0.13446035    -0.03500
C1452       C  0.29144138  0.56019593  0.14437713    -0.40000
H1453       H  0.22458767  0.57837098  0.12092163     0.12700
H1454       H  0.19905124  0.54767617  0.10534094     0.12400
H1455       H  0.26302594  0.48349714  0.11048269     0.11800
H1456       H  0.28899980  0.51474077  0.12578716     0.12000
H1457       H  0.22505975  0.47369755  0.09421499     0.14800
H1458       H  0.17460524  0.51398818  0.09620915     0.13500
H1459       H  0.26772330  0.59092475  0.13384262     0.11200
H1460       H  0.29614118  0.53796812  0.14573667     0.13200
C1461       C  0.15857063  0.30303743  0.06512714     0.19300
C1462       C  0.15987405  0.28558466  0.05337866    -0.18800
C1463       C  0.16035449  0.25619696  0.05480718    -0.11000
C1464       C  0.15921756  0.24348236  0.06809386     0.21600
C1465       C  0.15811954  0.26097821  0.07986189    -0.20400
C1466       C  0.15794524  0.29040677  0.07843032    -0.11200
C1467       C  0.15642692  0.21235079  0.07001455    -0.15400
C1468       C  0.16399058  0.19320926  0.06034505    -0.29200
C1469       C  0.15545186  0.33404113  0.06304907    -0.03500
C1470       C  0.16337329  0.35336271  0.07246547    -0.40000
H1471       H  0.15999360  0.29473966  0.04301284     0.12700
H1472       H  0.16037593  0.24365002  0.04544093     0.12400
H1473       H  0.15680099  0.25182802  0.09020550     0.11800
H1474       H  0.15614615  0.30310289  0.08772638     0.12000
H1475       H  0.14709641  0.20492895  0.07971474     0.14800
H1476       H  0.17452682  0.19982346  0.05083961     0.13500
H1477       H  0.14630992  0.34123653  0.05328165     0.11200
H1478       H  0.17388650  0.34683312  0.08197794     0.13200
C1479       C  0.16510416  0.52741443  0.98170231     0.19300
C1480       C  0.16980825  0.49864467  0.98438029    -0.18800
C1481       C  0.16692099  0.48759129  0.99787101    -0.11000
C1482       C  0.15904607  0.50512252  0.00901863     0.21600
C1483       C  0.15455464  0.53391007  0.00637355    -0.20400
C1484       C  0.15762996  0.54500412  0.99291206    -0.11200
C1485       C  0.15337664  0.49388570  0.02327155    -0.15400
C1486       C  0.16512801  0.47014969  0.02839418    -0.29200
C1487       C  0.16566649  0.53766214  0.96698435    -0.03500
C1488       C  0.16789265  0.56499074  0.96329286    -0.40000
H1489       H  0.17517908  0.48453202  0.97593960     0.12700
H1490       H  0.16982418  0.46515321  0.99939245     0.12400
H1491       H  0.14816005  0.54781588  0.01473066     0.11800
H1492       H  0.15297535  0.56710655  0.99131711     0.12000
H1493       H  0.13932065  0.50600274  0.02992488     0.14800
H1494       H  0.18052459  0.45854514  0.02230623     0.13500
H1495       H  0.16341349  0.52201523  0.95883609     0.11200
H1496       H  0.17126271  0.58103479  0.97110504     0.13200
C1497       C  0.72265326  0.53158160  0.14452636     0.19300
C1498       C  0.72297851  0.53851758  0.13029314    -0.18800
C1499       C  0.73877304  0.52250691  0.12084077    -0.11000
C1500       C  0.75496320  0.49942356  0.12550163     0.21600
C1501       C  0.75518167  0.49295159  0.13979166    -0.20400
C1502       C  0.73905758  0.50869425  0.14920588    -0.11200
C1503       C  0.77268906  0.48239160  0.11587041    -0.15400
C1504       C  0.76649812  0.47872795  0.10233382    -0.29200
C1505       C  0.70608798  0.54929545  0.15433998    -0.03500
C1506       C  0.69381349  0.53876144  0.16588761    -0.40000
H1507       H  0.71087973  0.55632707  0.12647347     0.12700
H1508       H  0.73876409  0.52868501  0.10997015     0.12400
H1509       H  0.76780316  0.47557463  0.14367884     0.11800
H1510       H  0.73996849  0.50330929  0.16017189     0.12000
H1511       H  0.79080654  0.47148024  0.12022427     0.14800
H1512       H  0.74749083  0.48786623  0.09797581     0.13500
H1513       H  0.70312707  0.57143701  0.15173812     0.11200
H1514       H  0.69501694  0.51631935  0.16810576     0.13200
C1515       C  0.79480755  0.23842315  0.07685622     0.19300
C1516       C  0.78539849  0.25540008  0.08785853    -0.18800
C1517       C  0.78349293  0.28468565  0.08626623    -0.11000
C1518       C  0.79154528  0.29772406  0.07364800     0.21600
C1519       C  0.80059671  0.28065077  0.06258355    -0.20400
C1520       C  0.80235952  0.25138555  0.06415653    -0.11200
C1521       C  0.79193230  0.32889713  0.07166952    -0.15400
C1522       C  0.79188788  0.34748787  0.08221885    -0.29200
C1523       C  0.79762700  0.20749833  0.07914023    -0.03500
C1524       C  0.79609562  0.18881001  0.06871392    -0.40000
H1525       H  0.77943020  0.24594620  0.09772542     0.12700
H1526       H  0.77571580  0.29682608  0.09496969     0.12400
H1527       H  0.80704966  0.29005237  0.05277176     0.11800
H1528       H  0.81046549  0.23916110  0.05553433     0.12000
H1529       H  0.79503087  0.33680648  0.06111825     0.14800
H1530       H  0.79043647  0.34042028  0.09295012     0.13500
H1531       H  0.80060201  0.19987939  0.08973694     0.11200
H1532       H  0.79173075  0.19593897  0.05817410     0.13200
C1533       C  0.81164227  0.51027925  0.98852304     0.19300
C1534       C  0.83404389  0.49847061  0.99603394    -0.18800
C1535       C  0.82938182  0.48568283  0.00896185    -0.11000
C1536       C  0.80206756  0.48399201  0.01455654     0.21600
C1537       C  0.77941671  0.49474601  0.00682579    -0.20400
C1538       C  0.78415852  0.50809626  0.99396268    -0.11200
C1539       C  0.79718986  0.47051835  0.02832145    -0.15400
C1540       C  0.81477788  0.47508083  0.03898405    -0.29200
C1541       C  0.81778798  0.52408920  0.97494379    -0.03500
C1542       C  0.80288451  0.54603363  0.96996958    -0.40000
H1543       H  0.85531283  0.49950724  0.99197020     0.12700
H1544       H  0.84714087  0.47682548  0.01452907     0.12400
H1545       H  0.75815095  0.49323457  0.01085449     0.11800
H1546       H  0.76632682  0.51627944  0.98822272     0.12000
H1547       H  0.77901002  0.45696841  0.02971779     0.14800
H1548       H  0.83178023  0.49013750  0.03775182     0.13500
H1549       H  0.83638766  0.51712493  0.96927651     0.11200
H1550       H  0.78531705  0.55450830  0.97589798     0.13200
C1551       C  0.00994264  0.43410167  0.07398502     0.19300
C1552       C  0.99066003  0.42913822  0.06324097    -0.18800
C1553       C  0.96174052  0.42887025  0.06588866    -0.11000
C1554       C  0.95126856  0.43360454  0.07941228     0.21600
C1555       C  0.97041922  0.43901928  0.09015228    -0.20400
C1556       C  0.99946763  0.43912799  0.08752180    -0.11200
C1557       C  0.92048275  0.43458856  0.08230601    -0.15400
C1558       C  0.90200132  0.41930756  0.07497788    -0.29200
C1559       C  0.04048309  0.43493065  0.07034924    -0.03500
C1560       C  0.06156752  0.43436682  0.07968071    -0.40000
H1561       H  0.99798861  0.42563637  0.05269278     0.12700
H1562       H  0.94763216  0.42567979  0.05721545     0.12400
H1563       H  0.96286922  0.44320701  0.10060533     0.11800
H1564       H  0.01339057  0.44377533  0.09607261     0.12000
H1565       H  0.91288001  0.44834865  0.09053334     0.14800
H1566       H  0.90957191  0.40447484  0.06723052     0.13500
H1567       H  0.04589488  0.43569822  0.05934328     0.11200
H1568       H  0.05725402  0.43280760  0.09074200     0.13200
loop_ 
_geom_bond_atom_site_label_1 
_geom_bond_atom_site_label_2 
_geom_bond_distance 
_geom_bond_site_symmetry_2 
_ccdc_geom_bond_type 
In1           O3   2.247       .  S
In1           O4   2.253       .  S
In1          O12   2.247       .  S
In1           O6   2.253       .  S
In1           O8   2.271       .  S
In1           O9   2.257       .  S
In1          O10   2.234       .  S
In1          O13   2.229       .  S
C2            O8   1.264       .  A
C2           O10   1.257       .  A
C2         C1558   1.474       .  S
O3           C11   1.259       .  A
O4           C11   1.261       .  A
C5           O12   1.260       .  A
C5            O6   1.263       .  A
C5         C1504   1.476       .  S
C7            O9   1.264       .  A
C7           O13   1.260       .  A
C7         C1540   1.471       .  S
C11        C1522   1.474       .  S
In14         O16   2.258       .  S
In14         O17   2.260       .  S
In14         O25   2.266       .  S
In14         O19   2.249       .  S
In14         O21   2.255       .  S
In14         O22   2.256       .  S
In14         O23   2.256       .  S
In14         O26   2.257       .  S
C15          O21   1.259       .  A
C15          O23   1.261       .  A
C15        C1560   1.479       .  S
O16          C24   1.259       .  A
O17          C24   1.259       .  A
C18          O25   1.262       .  A
C18          O19   1.259       .  A
C18        C1450   1.479       .  S
C20          O22   1.261       .  A
C20          O26   1.260       .  A
C20        C1470   1.480       .  S
C24        C1486   1.478       .  S
In27         O29   2.253       .  S
In27         O30   2.253       .  S
In27         O38   2.242       .  S
In27         O32   2.265       .  S
In27         O34   2.264       .  S
In27         O35   2.245       .  S
In27         O36   2.235       .  S
In27         O39   2.250       .  S
C28          O34   1.263       .  A
C28          O36   1.258       .  A
C28        C1432   1.473       .  S
O29          C37   1.259       .  A
O30          C37   1.260       .  A
C31          O38   1.258       .  A
C31          O32   1.262       .  A
C31        C1396   1.476       .  S
C33          O35   1.260       .  A
C33          O39   1.262       .  A
C33        C1542   1.475       .  S
C37        C1414   1.476       .  S
In40         O42   2.258       .  S
In40         O43   2.252       .  S
In40         O51   2.276       .  S
In40         O45   2.242       .  S
In40         O47   2.250       .  S
In40         O48   2.264       .  S
In40         O49   2.251       .  S
In40         O52   2.244       .  S
C41          O47   1.258       .  A
C41          O49   1.260       .  A
C41        C1434   1.474       .  S
O42          C50   1.261       .  A
O43          C50   1.259       .  A
C44          O51   1.262       .  A
C44          O45   1.256       .  A
C44        C1360   1.478       .  S
C46          O48   1.262       .  A
C46          O52   1.259       .  A
C46        C1378   1.477       .  S
C50        C1488   1.477       .  S
In53         O55   2.256       .  S
In53         O56   2.243       .  S
In53         O64   2.253       .  S
In53         O58   2.273       .  S
In53         O60   2.251       .  S
In53         O61   2.231       .  S
In53         O62   2.259       .  S
In53         O65   2.270       .  S
C54          O60   1.259       .  A
C54          O62   1.259       .  A
C54        C1342   1.476       .  S
O55          C63   1.261       .  A
O56          C63   1.257       .  A
C57          O64   1.257       .  A
C57          O58   1.260       .  A
C57        C1306   1.479       .  S
C59          O61   1.256       .  A
C59          O65   1.264       .  A
C59        C1524   1.474       .  S
C63        C1324   1.472       .  S
In66         O68   2.263       .  S
In66         O69   2.260       .  S
In66         O77   2.277       .  S
In66         O71   2.248       .  S
In66         O73   2.255       .  S
In66         O74   2.269       .  S
In66         O75   2.250       .  S
In66         O78   2.244       .  S
C67          O73   1.262       .  A
C67          O75   1.259       .  A
C67        C1344   1.476       .  S
O68          C76   1.260       .  A
O69          C76   1.260       .  A
C70          O77   1.261       .  A
C70          O71   1.258       .  A
C70        C1270   1.480       .  S
C72          O74   1.262       .  A
C72          O78   1.258       .  A
C72        C1288   1.478       .  S
C76        C1468   1.481       .  S
In79         O81   2.251       .  S
In79         O82   2.246       .  S
In79         O90   2.249       .  S
In79         O84   2.268       .  S
In79         O86   2.276       .  S
In79         O87   2.256       .  S
In79         O88   2.234       .  S
In79         O91   2.253       .  S
C80          O86   1.263       .  A
C80          O88   1.257       .  A
C80        C1252   1.476       .  S
O81          C89   1.262       .  A
O82          C89   1.260       .  A
C83          O90   1.257       .  A
C83          O84   1.261       .  A
C83        C1234   1.478       .  S
C85          O87   1.259       .  A
C85          O91   1.260       .  A
C85        C1416   1.477       .  S
C89        C1326   1.475       .  S
In92         O94   2.253       .  S
In92         O95   2.264       .  S
In92        O103   2.259       .  S
In92         O97   2.255       .  S
In92         O99   2.255       .  S
In92        O100   2.240       .  S
In92        O101   2.259       .  S
In92        O104   2.264       .  S
C93          O99   1.260       .  A
C93         O101   1.261       .  A
C93        C1254   1.479       .  S
O94         C102   1.259       .  A
O95         C102   1.260       .  A
C96         O103   1.261       .  A
C96          O97   1.260       .  A
C96        C1216   1.479       .  S
C98         O100   1.259       .  A
C98         O104   1.264       .  A
C98        C1290   1.478       .  S
C102       C1380   1.480       .  S
In105       O107   2.261       .  S
In105       O108   2.260       .  S
In105       O116   2.269       .  S
In105       O110   2.266       .  S
In105       O112   2.263       .  S
In105       O113   2.268       .  S
In105       O114   2.260       .  S
In105       O117   2.254       .  S
C106        O112   1.260       .  A
C106        O114   1.260       .  A
C106       C1198   1.481       .  S
O107        C115   1.261       .  A
O108        C115   1.259       .  A
C109        O116   1.259       .  A
C109        O110   1.260       .  A
C109       C1272   1.484       .  S
C111        O113   1.260       .  A
C111        O117   1.260       .  A
C111       C1180   1.482       .  S
C115       C1164   1.481       .  S
In118       O120   2.243       .  S
In118       O121   2.255       .  S
In118       O129   2.250       .  S
In118       O123   2.274       .  S
In118       O125   2.268       .  S
In118       O126   2.250       .  S
In118       O127   2.238       .  S
In118       O130   2.244       .  S
C119        O125   1.265       .  A
C119        O127   1.259       .  A
C119       C1200   1.477       .  S
O120        C128   1.260       .  A
O121        C128   1.261       .  A
C122        O129   1.258       .  A
C122        O123   1.262       .  A
C122       C1452   1.481       .  S
C124        O126   1.261       .  A
C124        O130   1.260       .  A
C124       C1126   1.473       .  S
C128       C1144   1.474       .  S
In131       O133   2.247       .  S
In131       O134   2.255       .  S
In131       O142   2.265       .  S
In131       O136   2.253       .  S
In131       O138   2.256       .  S
In131       O139   2.237       .  S
In131       O140   2.247       .  S
In131       O143   2.273       .  S
C132        O138   1.260       .  A
C132        O140   1.260       .  A
C132       C1108   1.475       .  S
O133        C141   1.260       .  A
O134        C141   1.260       .  A
C135        O142   1.258       .  A
C135        O136   1.259       .  A
C135       C1072   1.478       .  S
C137        O139   1.258       .  A
C137        O143   1.263       .  A
C137       C1182   1.476       .  S
C141       C1090   1.476       .  S
In144       O146   2.241       .  S
In144       O147   2.269       .  S
In144       O155   2.264       .  S
In144       O149   2.243       .  S
In144       O151   2.254       .  S
In144       O152   2.269       .  S
In144       O153   2.246       .  S
In144       O156   2.244       .  S
C145        O151   1.260       .  A
C145        O153   1.258       .  A
C145       C1110   1.472       .  S
O146        C154   1.258       .  A
O147        C154   1.263       .  A
C148        O155   1.263       .  A
C148        O149   1.259       .  A
C148       C1036   1.477       .  S
C150        O152   1.262       .  A
C150        O156   1.258       .  A
C150       C1056   1.478       .  S
C154       C1146   1.477       .  S
In157       O159   2.250       .  S
In157       O160   2.245       .  S
In157       O168   2.252       .  S
In157       O162   2.264       .  S
In157       O164   2.260       .  S
In157       O165   2.239       .  S
In157       O166   2.238       .  S
In157       O169   2.246       .  S
C158        O164   1.263       .  A
C158        O166   1.258       .  A
C158       C1018   1.474       .  S
O159        C167   1.261       .  A
O160        C167   1.257       .  A
C161        O168   1.258       .  A
C161        O162   1.260       .  A
C161       C1506   1.477       .  S
C163        O165   1.259       .  A
C163        O169   1.262       .  A
C163       C1000   1.471       .  S
C167       C1128   1.473       .  S
In170       O172   2.243       .  S
In170       O173   2.274       .  S
In170       O181   2.271       .  S
In170       O175   2.246       .  S
In170       O177   2.247       .  S
In170       O178   2.267       .  S
In170       O179   2.260       .  S
In170       O182   2.250       .  S
C171        O177   1.259       .  A
C171        O179   1.261       .  A
C171       C1020   1.476       .  S
O172        C180   1.259       .  A
O173        C180   1.262       .  A
C174        O181   1.261       .  A
C174        O175   1.257       .  A
C174       C1308   1.477       .  S
C176        O178   1.263       .  A
C176        O182   1.259       .  A
C176       C1162   1.480       .  S
C180        C982   1.482       .  S
In183       O185   2.259       .  S
In183       O186   2.249       .  S
In183       O194   2.262       .  S
In183       O188   2.249       .  S
In183       O190   2.259       .  S
In183       O191   2.259       .  S
In183       O192   2.252       .  S
In183       O195   2.252       .  S
C184        O190   1.259       .  A
C184        O192   1.260       .  A
C184        C966   1.478       .  S
O185        C193   1.261       .  A
O186        C193   1.260       .  A
C187        O194   1.260       .  A
C187        O188   1.261       .  A
C187        C946   1.480       .  S
C189        O191   1.260       .  A
C189        O195   1.258       .  A
C189       C1092   1.476       .  S
C193        C984   1.477       .  S
In196       O198   2.263       .  S
In196       O199   2.243       .  S
In196       O207   2.254       .  S
In196       O201   2.264       .  S
In196       O203   2.263       .  S
In196       O204   2.246       .  S
In196       O205   2.243       .  S
In196       O208   2.257       .  S
C197        O203   1.262       .  A
C197        O205   1.257       .  A
C197        C964   1.475       .  S
O198        C206   1.263       .  A
O199        C206   1.259       .  A
C200        O207   1.259       .  A
C200        O201   1.261       .  A
C200        C928   1.479       .  S
C202        O204   1.258       .  A
C202        O208   1.260       .  A
C202       C1002   1.473       .  S
C206       C1054   1.478       .  S
In209       O211   2.260       .  S
In209       O212   2.235       .  S
In209       O220   2.252       .  S
In209       O214   2.249       .  S
In209       O216   2.255       .  S
In209       O217   2.252       .  S
In209       O218   2.247       .  S
In209       O221   2.261       .  S
C210        O216   1.259       .  A
C210        O218   1.260       .  A
C210        C910   1.474       .  S
O211        C219   1.261       .  A
O212        C219   1.260       .  A
C213        O220   1.263       .  A
C213        O214   1.260       .  A
C213        C856   1.477       .  S
C215        O217   1.259       .  A
C215        O221   1.258       .  A
C215        C892   1.477       .  S
C219        C874   1.475       .  S
In222       O224   2.246       .  S
In222       O225   2.257       .  S
In222       O233   2.263       .  S
In222       O227   2.258       .  S
In222       O229   2.261       .  S
In222       O230   2.258       .  S
In222       O231   2.238       .  S
In222       O234   2.251       .  S
C223        O229   1.263       .  A
C223        O231   1.259       .  A
C223        C912   1.474       .  S
O224        C232   1.260       .  A
O225        C232   1.262       .  A
C226        O233   1.259       .  A
C226        O227   1.258       .  A
C226        C802   1.479       .  S
C228        O230   1.260       .  A
C228        O234   1.259       .  A
C228        C820   1.477       .  S
C232        C838   1.477       .  S
In235       O237   2.249       .  S
In235       O238   2.264       .  S
In235       O246   2.266       .  S
In235       O240   2.249       .  S
In235       O242   2.252       .  S
In235       O243   2.253       .  S
In235       O244   2.248       .  S
In235       O247   2.249       .  S
C236        O242   1.262       .  A
C236        O244   1.259       .  A
C236        C784   1.476       .  S
O237        C245   1.259       .  A
O238        C245   1.262       .  A
C239        O246   1.262       .  A
C239        O240   1.259       .  A
C239        C930   1.479       .  S
C241        O243   1.261       .  A
C241        O247   1.261       .  A
C241        C894   1.477       .  S
C245        C768   1.478       .  S
In248       O250   2.240       .  S
In248       O251   2.269       .  S
In248       O259   2.264       .  S
In248       O253   2.252       .  S
In248       O255   2.252       .  S
In248       O256   2.259       .  S
In248       O257   2.259       .  S
In248       O260   2.244       .  S
C249        O255   1.259       .  A
C249        O257   1.260       .  A
C249        C786   1.476       .  S
O250        C258   1.258       .  A
O251        C258   1.262       .  A
C252        O259   1.261       .  A
C252        O253   1.260       .  A
C252       C1038   1.481       .  S
C254        O256   1.262       .  A
C254        O260   1.259       .  A
C254        C750   1.476       .  S
C258        C840   1.476       .  S
In261       O263   2.252       .  S
In261       O264   2.252       .  S
In261       O272   2.261       .  S
In261       O266   2.246       .  S
In261       O268   2.263       .  S
In261       O269   2.245       .  S
In261       O270   2.237       .  S
In261       O273   2.254       .  S
C262        O268   1.260       .  A
C262        O270   1.259       .  A
C262        C730   1.477       .  S
O263        C271   1.259       .  A
O264        C271   1.260       .  A
C265        O272   1.260       .  A
C265        O266   1.260       .  A
C265        C694   1.478       .  S
C267        O269   1.259       .  A
C267        O273   1.261       .  A
C267        C876   1.473       .  S
C271        C712   1.475       .  S
In274       O276   2.245       .  S
In274       O277   2.261       .  S
In274       O285   2.251       .  S
In274       O279   2.253       .  S
In274       O281   2.258       .  S
In274       O282   2.255       .  S
In274       O283   2.237       .  S
In274       O286   2.238       .  S
C275        O281   1.263       .  A
C275        O283   1.259       .  A
C275        C732   1.473       .  S
O276        C284   1.259       .  A
O277        C284   1.262       .  A
C278        O285   1.259       .  A
C278        O279   1.261       .  A
C278        C658   1.477       .  S
C280        O282   1.262       .  A
C280        O286   1.260       .  A
C280        C676   1.475       .  S
C284        C822   1.477       .  S
In287       O289   2.243       .  S
In287       O290   2.272       .  S
In287       O298   2.272       .  S
In287       O292   2.249       .  S
In287       O294   2.267       .  S
In287       O295   2.252       .  S
In287       O296   2.240       .  S
In287       O299   2.259       .  S
C288        O294   1.263       .  A
C288        O296   1.259       .  A
C288        C640   1.477       .  S
O289        C297   1.256       .  A
O290        C297   1.259       .  A
C291        O298   1.261       .  A
C291        O292   1.258       .  A
C291        C948   1.478       .  S
C293        O295   1.260       .  A
C293        O299   1.263       .  A
C293        C766   1.480       .  S
C297        C714   1.477       .  S
In300       O302   2.240       .  S
In300       O303   2.255       .  S
In300       O311   2.273       .  S
In300       O305   2.239       .  S
In300       O307   2.253       .  S
In300       O308   2.254       .  S
In300       O309   2.255       .  S
In300       O312   2.245       .  S
C301        O307   1.259       .  A
C301        O309   1.260       .  A
C301        C642   1.477       .  S
O302        C310   1.260       .  A
O303        C310   1.260       .  A
C304        O311   1.262       .  A
C304        O305   1.257       .  A
C304       C1074   1.475       .  S
C306        O308   1.261       .  A
C306        O312   1.258       .  A
C306        C678   1.473       .  S
C310        C748   1.474       .  S
In313       O315   2.258       .  S
In313       O316   2.262       .  S
In313       O324   2.269       .  S
In313       O318   2.246       .  S
In313       O320   2.259       .  S
In313       O321   2.256       .  S
In313       O322   2.247       .  S
In313       O325   2.249       .  S
C314        O320   1.262       .  A
C314        O322   1.259       .  A
C314        C622   1.475       .  S
O315        C323   1.260       .  A
O316        C323   1.260       .  A
C317        O324   1.261       .  A
C317        O318   1.258       .  A
C317        C804   1.477       .  S
C319        O321   1.261       .  A
C319        O325   1.258       .  A
C319        C588   1.474       .  S
C323        C606   1.481       .  S
In326       O328   2.257       .  S
In326       O329   2.258       .  S
In326       O337   2.267       .  S
In326       O331   2.245       .  S
In326       O333   2.249       .  S
In326       O334   2.239       .  S
In326       O335   2.258       .  S
In326       O338   2.258       .  S
C327        O333   1.259       .  A
C327        O335   1.261       .  A
C327        C624   1.475       .  S
O328        C336   1.261       .  A
O329        C336   1.259       .  A
C330        O337   1.261       .  A
C330        O331   1.257       .  A
C330        C660   1.475       .  S
C332        O334   1.261       .  A
C332        O338   1.260       .  A
C332        C568   1.475       .  S
C336        C550   1.479       .  S
In339       O341   2.241       .  S
In339       O342   2.277       .  S
In339       O350   2.270       .  S
In339       O344   2.244       .  S
In339       O346   2.254       .  S
In339       O347   2.273       .  S
In339       O348   2.247       .  S
In339       O351   2.226       .  S
C340        O346   1.262       .  A
C340        O348   1.260       .  A
C340        C532   1.476       .  S
O341        C349   1.258       .  A
O342        C349   1.263       .  A
C343        O350   1.263       .  A
C343        O344   1.259       .  A
C343       C1218   1.480       .  S
C345        O347   1.265       .  A
C345        O351   1.257       .  A
C345        C570   1.473       .  S
C349        C514   1.480       .  S
In352       O354   2.266       .  S
In352       O355   2.249       .  S
In352       O363   2.270       .  S
In352       O357   2.258       .  S
In352       O359   2.263       .  S
In352       O360   2.246       .  S
In352       O361   2.255       .  S
In352       O364   2.254       .  S
C353        O359   1.260       .  A
C353        O361   1.259       .  A
C353        C534   1.480       .  S
O354        C362   1.261       .  A
O355        C362   1.258       .  A
C356        O363   1.260       .  A
C356        O357   1.258       .  A
C356       C1362   1.481       .  S
C358        O360   1.261       .  A
C358        O364   1.261       .  A
C358        C496   1.477       .  S
C362        C604   1.478       .  S
In365       O367   2.231       .  S
In365       O368   2.276       .  S
In365       O376   2.262       .  S
In365       O370   2.232       .  S
In365       O372   2.257       .  S
In365       O373   2.270       .  S
In365       O374   2.250       .  S
In365       O377   2.250       .  S
C366        O372   1.258       .  A
C366        O374   1.259       .  A
C366        C478   1.475       .  S
O367        C375   1.257       .  A
O368        C375   1.264       .  A
C369        O376   1.264       .  A
C369        O370   1.260       .  A
C369        C696   1.474       .  S
C371        O373   1.261       .  A
C371        O377   1.257       .  A
C371        C552   1.478       .  S
C375        C462   1.476       .  S
In378       O380   2.248       .  S
In378       O381   2.256       .  S
In378       O389   2.271       .  S
In378       O383   2.252       .  S
In378       O385   2.251       .  S
In378       O386   2.240       .  S
In378       O387   2.249       .  S
In378       O390   2.257       .  S
C379        O385   1.262       .  A
C379        O387   1.260       .  A
C379        C480   1.475       .  S
O380        C388   1.259       .  A
O381        C388   1.258       .  A
C382        O389   1.260       .  A
C382        O383   1.257       .  A
C382        C858   1.478       .  S
C384        O386   1.258       .  A
C384        O390   1.262       .  A
C384        C442   1.474       .  S
C388        C586   1.474       .  S
In391       O393   2.246       .  S
In391       O394   2.258       .  S
In391       O402   2.254       .  S
In391       O396   2.255       .  S
In391       O398   2.254       .  S
In391       O399   2.251       .  S
In391       O400   2.251       .  S
In391       O403   2.248       .  S
C392        O398   1.260       .  A
C392        O400   1.261       .  A
C392        C426   1.478       .  S
O393        C401   1.258       .  A
O394        C401   1.261       .  A
C395        O402   1.258       .  A
C395        O396   1.259       .  A
C395       C1398   1.475       .  S
C397        O399   1.260       .  A
C397        O403   1.262       .  A
C397        C444   1.476       .  S
C401        C498   1.474       .  S
In404       O406   2.244       .  S
In404       O407   2.257       .  S
In404       O415   2.250       .  S
In404       O409   2.253       .  S
In404       O411   2.266       .  S
In404       O412   2.257       .  S
In404       O413   2.228       .  S
In404       O416   2.258       .  S
C405        O411   1.264       .  A
C405        O413   1.258       .  A
C405        C424   1.473       .  S
O406        C414   1.260       .  A
O407        C414   1.263       .  A
C408        O415   1.260       .  A
C408        O409   1.262       .  A
C408       C1236   1.477       .  S
C410        O412   1.261       .  A
C410        O416   1.261       .  A
C410        C516   1.481       .  S
C414        C460   1.477       .  S
C417        C425   1.492       .  S
C417        C418   1.403       .  A
C417        C422   1.411       .  A
C418        C419   1.395       .  A
C418        H427   1.083       .  S
C419        C420   1.407       .  A
C419        H428   1.081       .  S
C420        C423   1.491       .  S
C420        C421   1.404       .  A
C421        C422   1.403       .  A
C421        H429   1.083       .  S
C422        H430   1.080       .  S
C423        H431   1.087       .  S
C423        C424   1.345       .  D
C424        H432   1.083       .  S
C425        H433   1.088       .  S
C425        C426   1.346       .  D
C426        H434   1.083       .  S
C435        C443   1.488       .  S
C435        C436   1.403       .  A
C435        C440   1.408       .  A
C436        C437   1.398       .  A
C436        H445   1.084       .  S
C437        C438   1.409       .  A
C437        H446   1.081       .  S
C438        C441   1.489       .  S
C438        C439   1.404       .  A
C439        C440   1.400       .  A
C439        H447   1.083       .  S
C440        H448   1.081       .  S
C441        H449   1.087       .  S
C441        C442   1.345       .  D
C442        H450   1.084       .  S
C443        H451   1.087       .  S
C443        C444   1.346       .  D
C444        H452   1.084       .  S
C453        C461   1.492       .  S
C453        C454   1.404       .  A
C453        C458   1.409       .  A
C454        C455   1.402       .  A
C454        H463   1.083       .  S
C455        C456   1.409       .  A
C455        H464   1.082       .  S
C456        C459   1.489       .  S
C456        C457   1.402       .  A
C457        C458   1.398       .  A
C457        H465   1.084       .  S
C458        H466   1.081       .  S
C459        H467   1.087       .  S
C459        C460   1.345       .  D
C460        H468   1.085       .  S
C461        H469   1.087       .  S
C461        C462   1.346       .  D
C462        H470   1.085       .  S
C471        C479   1.490       .  S
C471        C472   1.404       .  A
C471        C476   1.408       .  A
C472        C473   1.399       .  A
C472        H481   1.083       .  S
C473        C474   1.408       .  A
C473        H482   1.080       .  S
C474        C477   1.489       .  S
C474        C475   1.404       .  A
C475        C476   1.399       .  A
C475        H483   1.083       .  S
C476        H484   1.081       .  S
C477        H485   1.087       .  S
C477        C478   1.346       .  D
C478        H486   1.084       .  S
C479        H487   1.087       .  S
C479        C480   1.346       .  D
C480        H488   1.084       .  S
C489        C497   1.486       .  S
C489        C490   1.403       .  A
C489        C494   1.406       .  A
C490        C491   1.401       .  A
C490        H499   1.084       .  S
C491        C492   1.410       .  A
C491        H500   1.080       .  S
C492        C495   1.491       .  S
C492        C493   1.404       .  A
C493        C494   1.397       .  A
C493        H501   1.084       .  S
C494        H502   1.082       .  S
C495        H503   1.088       .  S
C495        C496   1.347       .  D
C496        H504   1.083       .  S
C497        H505   1.087       .  S
C497        C498   1.345       .  D
C498        H506   1.085       .  S
C507        C515   1.494       .  S
C507        C508   1.404       .  A
C507        C512   1.409       .  A
C508        C509   1.400       .  A
C508        H517   1.083       .  S
C509        C510   1.410       .  A
C509        H518   1.080       .  S
C510        C513   1.498       .  S
C510        C511   1.406       .  A
C511        C512   1.403       .  A
C511        H519   1.083       .  S
C512        H520   1.081       .  S
C513        H521   1.087       .  S
C513        C514   1.348       .  D
C514        H522   1.083       .  S
C515        H523   1.087       .  S
C515        C516   1.348       .  D
C516        H524   1.084       .  S
C525        C533   1.495       .  S
C525        C526   1.405       .  A
C525        C530   1.409       .  A
C526        C527   1.399       .  A
C526        H535   1.082       .  S
C527        C528   1.407       .  A
C527        H536   1.081       .  S
C528        C531   1.492       .  S
C528        C529   1.405       .  A
C529        C530   1.401       .  A
C529        H537   1.083       .  S
C530        H538   1.079       .  S
C531        H539   1.087       .  S
C531        C532   1.347       .  D
C532        H540   1.083       .  S
C533        H541   1.086       .  S
C533        C534   1.349       .  D
C534        H542   1.081       .  S
C543        C551   1.491       .  S
C543        C544   1.404   1_655  A
C543        C548   1.407   1_655  A
C544        C545   1.402       .  A
C544        H553   1.083   1_455  S
C545        C546   1.410       .  A
C545        H554   1.079       .  S
C546        C549   1.494       .  S
C546        C547   1.405       .  A
C547        C548   1.398       .  A
C547        H555   1.083       .  S
C548        H556   1.081   1_455  S
C549        H557   1.087       .  S
C549        C550   1.347       .  D
C550        H558   1.083       .  S
C551        H559   1.087       .  S
C551        C552   1.346       .  D
C552        H560   1.085       .  S
C561        C569   1.492       .  S
C561        C562   1.405       .  A
C561        C566   1.409       .  A
C562        C563   1.402       .  A
C562        H571   1.083       .  S
C563        C564   1.408       .  A
C563        H572   1.082       .  S
C564        C567   1.485       .  S
C564        C565   1.401       .  A
C565        C566   1.396       .  A
C565        H573   1.084       .  S
C566        H574   1.081       .  S
C567        H575   1.087       .  S
C567        C568   1.344       .  D
C568        H576   1.085       .  S
C569        H577   1.087       .  S
C569        C570   1.345       .  D
C570        H578   1.084       .  S
C579        C587   1.489       .  S
C579        C580   1.404       .  A
C579        C584   1.408       .  A
C580        C581   1.400       .  A
C580        H589   1.084       .  S
C581        C582   1.408   1_455  A
C581        H590   1.081   1_455  S
C582        C585   1.487       .  S
C582        C583   1.402   1_655  A
C583        C584   1.397       .  A
C583        H591   1.084   1_455  S
C584        H592   1.080       .  S
C585        H593   1.088       .  S
C585        C586   1.345       .  D
C586        H594   1.084       .  S
C587        H595   1.088       .  S
C587        C588   1.345       .  D
C588        H596   1.084       .  S
C597        C605   1.491       .  S
C597        C598   1.404       .  A
C597        C602   1.408       .  A
C598        C599   1.400       .  A
C598        H607   1.083       .  S
C599        C600   1.407       .  A
C599        H608   1.082       .  S
C600        C603   1.490       .  S
C600        C601   1.404       .  A
C601        C602   1.402       .  A
C601        H609   1.083       .  S
C602        H610   1.082       .  S
C603        H611   1.087       .  S
C603        C604   1.346       .  D
C604        H612   1.086       .  S
C605        H613   1.087       .  S
C605        C606   1.347       .  D
C606        H614   1.085       .  S
C615        C623   1.489       .  S
C615        C616   1.403       .  A
C615        C620   1.409       .  A
C616        C617   1.399       .  A
C616        H625   1.083       .  S
C617        C618   1.408       .  A
C617        H626   1.081       .  S
C618        C621   1.489       .  S
C618        C619   1.403       .  A
C619        C620   1.400       .  A
C619        H627   1.084       .  S
C620        H628   1.081       .  S
C621        H629   1.087       .  S
C621        C622   1.346       .  D
C622        H630   1.085       .  S
C623        H631   1.087       .  S
C623        C624   1.346       .  D
C624        H632   1.084       .  S
C633        C641   1.490       .  S
C633        C634   1.403       .  A
C633        C638   1.408       .  A
C634        C635   1.399       .  A
C634        H643   1.083       .  S
C635        C636   1.409       .  A
C635        H644   1.081       .  S
C636        C639   1.492       .  S
C636        C637   1.405       .  A
C637        C638   1.401       .  A
C637        H645   1.083       .  S
C638        H646   1.082       .  S
C639        H647   1.087       .  S
C639        C640   1.346       .  D
C640        H648   1.084       .  S
C641        H649   1.087       .  S
C641        C642   1.346       .  D
C642        H650   1.084       .  S
C651        C659   1.490       .  S
C651        C652   1.404   1_545  A
C651        C656   1.407       .  A
C652        C653   1.402       .  A
C652        H661   1.083       .  S
C653        C654   1.410       .  A
C653        H662   1.080       .  S
C654        C657   1.492       .  S
C654        C655   1.404       .  A
C655        C656   1.397   1_565  A
C655        H663   1.083   1_565  S
C656        H664   1.081       .  S
C657        H665   1.087       .  S
C657        C658   1.346       .  D
C658        H666   1.083       .  S
C659        H667   1.087       .  S
C659        C660   1.345       .  D
C660        H668   1.085       .  S
C669        C677   1.488       .  S
C669        C670   1.403   1_545  A
C669        C674   1.407       .  A
C670        C671   1.399       .  A
C670        H679   1.083       .  S
C671        C672   1.409       .  A
C671        H680   1.079       .  S
C672        C675   1.490       .  S
C672        C673   1.405   1_565  A
C673        C674   1.397       .  A
C673        H681   1.084       .  S
C674        H682   1.081       .  S
C675        H683   1.087       .  S
C675        C676   1.348       .  D
C676        H684   1.082       .  S
C677        H685   1.087       .  S
C677        C678   1.345       .  D
C678        H686   1.084       .  S
C687        C695   1.487       .  S
C687        C688   1.405   1_545  A
C687        C692   1.406       .  A
C688        C689   1.403       .  A
C688        H697   1.083       .  S
C689        C690   1.408       .  A
C689        H698   1.082       .  S
C690        C693   1.486       .  S
C690        C691   1.402   1_565  A
C691        C692   1.396       .  A
C691        H699   1.083       .  S
C692        H700   1.083       .  S
C693        H701   1.087       .  S
C693        C694   1.345       .  D
C694        H702   1.085       .  S
C695        H703   1.086       .  S
C695        C696   1.345       .  D
C696        H704   1.085       .  S
C705        C713   1.487       .  S
C705        C706   1.404       .  A
C705        C710   1.408       .  A
C706        C707   1.397       .  A
C706        H715   1.083       .  S
C707        C708   1.406   1_545  A
C707        H716   1.082       .  S
C708        C711   1.486       .  S
C708        C709   1.404       .  A
C709        C710   1.401   1_565  A
C709        H717   1.083       .  S
C710        H718   1.081       .  S
C711        H719   1.087       .  S
C711        C712   1.345       .  D
C712        H720   1.086   1_565  S
C713        H721   1.087       .  S
C713        C714   1.347       .  D
C714        H722   1.084       .  S
C723        C731   1.487       .  S
C723        C724   1.404       .  A
C723        C728   1.405       .  A
C724        C725   1.403       .  A
C724        H733   1.083       .  S
C725        C726   1.409       .  A
C725        H734   1.081       .  S
C726        C729   1.487       .  S
C726        C727   1.403       .  A
C727        C728   1.395       .  A
C727        H735   1.082       .  S
C728        H736   1.083       .  S
C729        H737   1.087       .  S
C729        C730   1.346       .  D
C730        H738   1.084       .  S
C731        H739   1.087       .  S
C731        C732   1.345       .  D
C732        H740   1.086       .  S
C741        C749   1.491       .  S
C741        C742   1.405       .  A
C741        C746   1.409       .  A
C742        C743   1.399       .  A
C742        H751   1.083       .  S
C743        C744   1.407       .  A
C743        H752   1.082       .  S
C744        C747   1.484       .  S
C744        C745   1.402       .  A
C745        C746   1.398       .  A
C745        H753   1.083       .  S
C746        H754   1.081       .  S
C747        H755   1.087       .  S
C747        C748   1.344       .  D
C748        H756   1.085       .  S
C749        H757   1.087       .  S
C749        C750   1.347       .  D
C750        H758   1.083       .  S
C759        C767   1.492       .  S
C759        C760   1.404       .  A
C759        C764   1.408       .  A
C760        C761   1.402       .  A
C760        H769   1.084       .  S
C761        C762   1.410       .  A
C761        H770   1.080       .  S
C762        C765   1.495       .  S
C762        C763   1.405       .  A
C763        C764   1.399       .  A
C763        H771   1.084       .  S
C764        H772   1.081       .  S
C765        H773   1.087       .  S
C765        C766   1.348       .  D
C766        H774   1.083       .  S
C767        H775   1.087       .  S
C767        C768   1.347       .  D
C768        H776   1.085       .  S
C777        C785   1.490       .  S
C777        C778   1.404       .  A
C777        C782   1.408       .  A
C778        C779   1.400       .  A
C778        H787   1.083       .  S
C779        C780   1.409       .  A
C779        H788   1.081       .  S
C780        C783   1.490       .  S
C780        C781   1.403       .  A
C781        C782   1.398       .  A
C781        H789   1.083       .  S
C782        H790   1.080       .  S
C783        H791   1.087       .  S
C783        C784   1.346       .  D
C784        H792   1.083       .  S
C785        H793   1.086       .  S
C785        C786   1.347       .  D
C786        H794   1.083       .  S
C795        C803   1.489       .  S
C795        C796   1.403       .  A
C795        C800   1.407       .  A
C796        C797   1.401       .  A
C796        H805   1.083       .  S
C797        C798   1.409       .  A
C797        H806   1.081       .  S
C798        C801   1.493       .  S
C798        C799   1.405       .  A
C799        C800   1.400       .  A
C799        H807   1.083       .  S
C800        H808   1.082       .  S
C801        H809   1.087       .  S
C801        C802   1.348       .  D
C802        H810   1.084       .  S
C803        H811   1.087       .  S
C803        C804   1.345       .  D
C804        H812   1.085       .  S
C813        C821   1.494       .  S
C813        C814   1.405       .  A
C813        C818   1.409       .  A
C814        C815   1.400       .  A
C814        H823   1.083       .  S
C815        C816   1.408       .  A
C815        H824   1.081       .  S
C816        C819   1.491       .  S
C816        C817   1.404       .  A
C817        C818   1.399       .  A
C817        H825   1.083       .  S
C818        H826   1.080       .  S
C819        H827   1.087       .  S
C819        C820   1.347       .  D
C820        H828   1.083       .  S
C821        H829   1.087       .  S
C821        C822   1.347       .  D
C822        H830   1.082       .  S
C831        C839   1.492       .  S
C831        C832   1.404       .  A
C831        C836   1.408       .  A
C832        C833   1.401       .  A
C832        H841   1.083       .  S
C833        C834   1.409       .  A
C833        H842   1.081       .  S
C834        C837   1.492       .  S
C834        C835   1.404       .  A
C835        C836   1.399       .  A
C835        H843   1.083       .  S
C836        H844   1.081       .  S
C837        H845   1.087       .  S
C837        C838   1.347       .  D
C838        H846   1.083       .  S
C839        H847   1.087       .  S
C839        C840   1.346       .  D
C840        H848   1.084       .  S
C849        C857   1.494       .  S
C849        C850   1.405       .  A
C849        C854   1.409       .  A
C850        C851   1.401       .  A
C850        H859   1.083       .  S
C851        C852   1.408       .  A
C851        H860   1.081       .  S
C852        C855   1.491       .  S
C852        C853   1.403       .  A
C853        C854   1.399       .  A
C853        H861   1.083       .  S
C854        H862   1.080       .  S
C855        H863   1.088       .  S
C855        C856   1.346       .  D
C856        H864   1.085       .  S
C857        H865   1.087       .  S
C857        C858   1.348       .  D
C858        H866   1.083       .  S
C867        C875   1.483       .  S
C867        C868   1.403       .  A
C867        C872   1.406       .  A
C868        C869   1.400       .  A
C868        H877   1.083       .  S
C869        C870   1.406       .  A
C869        H878   1.083       .  S
C870        C873   1.481       .  S
C870        C871   1.402       .  A
C871        C872   1.397       .  A
C871        H879   1.083       .  S
C872        H880   1.083       .  S
C873        H881   1.087       .  S
C873        C874   1.345       .  D
C874        H882   1.086       .  S
C875        H883   1.087       .  S
C875        C876   1.344       .  D
C876        H884   1.086       .  S
C885        C893   1.488       .  S
C885        C886   1.404       .  A
C885        C890   1.407       .  A
C886        C887   1.400       .  A
C886        H895   1.084       .  S
C887        C888   1.408       .  A
C887        H896   1.081       .  S
C888        C891   1.487       .  S
C888        C889   1.403       .  A
C889        C890   1.398       .  A
C889        H897   1.084       .  S
C890        H898   1.081       .  S
C891        H899   1.087       .  S
C891        C892   1.345       .  D
C892        H900   1.085       .  S
C893        H901   1.087       .  S
C893        C894   1.347       .  D
C894        H902   1.085       .  S
C903        C911   1.493       .  S
C903        C904   1.405       .  A
C903        C908   1.410       .  A
C904        C905   1.400       .  A
C904        H913   1.083       .  S
C905        C906   1.407       .  A
C905        H914   1.081       .  S
C906        C909   1.486       .  S
C906        C907   1.401       .  A
C907        C908   1.397       .  A
C907        H915   1.084       .  S
C908        H916   1.079       .  S
C909        H917   1.087       .  S
C909        C910   1.345       .  D
C910        H918   1.084       .  S
C911        H919   1.087       .  S
C911        C912   1.346       .  D
C912        H920   1.082       .  S
C921        C929   1.494       .  S
C921        C922   1.405       .  A
C921        C926   1.409       .  A
C922        C923   1.401       .  A
C922        H931   1.083       .  S
C923        C924   1.409       .  A
C923        H932   1.081       .  S
C924        C927   1.494       .  S
C924        C925   1.404       .  A
C925        C926   1.400       .  A
C925        H933   1.083       .  S
C926        H934   1.081       .  S
C927        H935   1.087       .  S
C927        C928   1.348       .  D
C928        H936   1.084       .  S
C929        H937   1.087       .  S
C929        C930   1.348       .  D
C930        H938   1.084       .  S
C939        C947   1.494       .  S
C939        C940   1.406       .  A
C939        C944   1.408       .  A
C940        C941   1.403       .  A
C940        H949   1.084       .  S
C941        C942   1.409   1_545  A
C941        H950   1.081       .  S
C942        C945   1.491       .  S
C942        C943   1.403       .  A
C943        C944   1.398   1_565  A
C943        H951   1.084       .  S
C944        H952   1.080   1_545  S
C945        H953   1.088       .  S
C945        C946   1.347       .  D
C946        H954   1.085   1_565  S
C947        H955   1.087       .  S
C947        C948   1.348       .  D
C948        H956   1.084       .  S
C957        C965   1.493       .  S
C957        C958   1.405       .  A
C957        C962   1.410       .  A
C958        C959   1.398       .  A
C958        H967   1.083       .  S
C959        C960   1.407       .  A
C959        H968   1.081       .  S
C960        C963   1.490       .  S
C960        C961   1.403       .  A
C961        C962   1.401       .  A
C961        H969   1.083       .  S
C962        H970   1.079       .  S
C963        H971   1.087       .  S
C963        C964   1.345       .  D
C964        H972   1.085       .  S
C965        H973   1.087       .  S
C965        C966   1.348       .  D
C966        H974   1.082       .  S
C975        C983   1.490       .  S
C975        C976   1.406       .  A
C975        C980   1.406       .  A
C976        C977   1.403       .  A
C976        H985   1.083       .  S
C977        C978   1.408       .  A
C977        H986   1.082       .  S
C978        C981   1.489       .  S
C978        C979   1.404       .  A
C979        C980   1.398       .  A
C979        H987   1.082       .  S
C980        H988   1.082       .  S
C981        H989   1.087       .  S
C981        C982   1.348       .  D
C982        H990   1.085       .  S
C983        H991   1.087       .  S
C983        C984   1.347       .  D
C984        H992   1.086       .  S
C993       C1001   1.485       .  S
C993        C994   1.404       .  A
C993        C998   1.407       .  A
C994        C995   1.400       .  A
C994       H1003   1.083       .  S
C995        C996   1.408       .  A
C995       H1004   1.083       .  S
C996        C999   1.483       .  S
C996        C997   1.401       .  A
C997        C998   1.396       .  A
C997       H1005   1.083       .  S
C998       H1006   1.082       .  S
C999       H1007   1.087       .  S
C999       C1000   1.342       .  D
C1000      H1008   1.085       .  S
C1001      H1009   1.087       .  S
C1001      C1002   1.345       .  D
C1002      H1010   1.086       .  S
C1011      C1019   1.492       .  S
C1011      C1012   1.404       .  A
C1011      C1016   1.409       .  A
C1012      C1013   1.399       .  A
C1012      H1021   1.083       .  S
C1013      C1014   1.409       .  A
C1013      H1022   1.081       .  S
C1014      C1017   1.491       .  S
C1014      C1015   1.404       .  A
C1015      C1016   1.400       .  A
C1015      H1023   1.083       .  S
C1016      H1024   1.080       .  S
C1017      H1025   1.087       .  S
C1017      C1018   1.345       .  D
C1018      H1026   1.083       .  S
C1019      H1027   1.087       .  S
C1019      C1020   1.346       .  D
C1020      H1028   1.083       .  S
C1029      C1037   1.493       .  S
C1029      C1030   1.404       .  A
C1029      C1034   1.409       .  A
C1030      C1031   1.398       .  A
C1030      H1039   1.084       .  S
C1031      C1032   1.408       .  A
C1031      H1040   1.081       .  S
C1032      C1035   1.493       .  S
C1032      C1033   1.405       .  A
C1033      C1034   1.403       .  A
C1033      H1041   1.084       .  S
C1034      H1042   1.080       .  S
C1035      H1043   1.087       .  S
C1035      C1036   1.347       .  D
C1036      H1044   1.085       .  S
C1037      H1045   1.087       .  S
C1037      C1038   1.348       .  D
C1038      H1046   1.084       .  S
C1047      C1055   1.494       .  S
C1047      C1048   1.405       .  A
C1047      C1052   1.409       .  A
C1048      C1049   1.401       .  A
C1048      H1057   1.083       .  S
C1049      C1050   1.409   1_455  A
C1049      H1058   1.081   1_455  S
C1050      C1053   1.494       .  S
C1050      C1051   1.404   1_655  A
C1051      C1052   1.400       .  A
C1051      H1059   1.083       .  S
C1052      H1060   1.080       .  S
C1053      H1061   1.087       .  S
C1053      C1054   1.347       .  D
C1054      H1062   1.083       .  S
C1055      H1063   1.087       .  S
C1055      C1056   1.347       .  D
C1056      H1064   1.083       .  S
C1065      C1073   1.489       .  S
C1065      C1066   1.404       .  A
C1065      C1070   1.407       .  A
C1066      C1067   1.403       .  A
C1066      H1075   1.083       .  S
C1067      C1068   1.409       .  A
C1067      H1076   1.081       .  S
C1068      C1071   1.490   1_545  S
C1068      C1069   1.404   1_545  A
C1069      C1070   1.397   1_565  A
C1069      H1077   1.083       .  S
C1070      H1078   1.082       .  S
C1071      H1079   1.087       .  S
C1071      C1072   1.346       .  D
C1072      H1080   1.084   1_565  S
C1073      H1081   1.087       .  S
C1073      C1074   1.345       .  D
C1074      H1082   1.085       .  S
C1083      C1091   1.491       .  S
C1083      C1084   1.405       .  A
C1083      C1088   1.409       .  A
C1084      C1085   1.400   1_655  A
C1084      H1093   1.083       .  S
C1085      C1086   1.407       .  A
C1085      H1094   1.082       .  S
C1086      C1089   1.487       .  S
C1086      C1087   1.403       .  A
C1087      C1088   1.399   1_455  A
C1087      H1095   1.083       .  S
C1088      H1096   1.081       .  S
C1089      H1097   1.087       .  S
C1089      C1090   1.346       .  D
C1090      H1098   1.085       .  S
C1091      H1099   1.087       .  S
C1091      C1092   1.347       .  D
C1092      H1100   1.083       .  S
C1101      C1109   1.485       .  S
C1101      C1102   1.403       .  A
C1101      C1106   1.406       .  A
C1102      C1103   1.400       .  A
C1102      H1111   1.083       .  S
C1103      C1104   1.409       .  A
C1103      H1112   1.080       .  S
C1104      C1107   1.489       .  S
C1104      C1105   1.404       .  A
C1105      C1106   1.396       .  A
C1105      H1113   1.083       .  S
C1106      H1114   1.082       .  S
C1107      H1115   1.087       .  S
C1107      C1108   1.346       .  D
C1108      H1116   1.083       .  S
C1109      H1117   1.087       .  S
C1109      C1110   1.345       .  D
C1110      H1118   1.086       .  S
C1119      C1127   1.487       .  S
C1119      C1120   1.402       .  A
C1119      C1124   1.409       .  A
C1120      C1121   1.396       .  A
C1120      H1129   1.083       .  S
C1121      C1122   1.408       .  A
C1121      H1130   1.080       .  S
C1122      C1125   1.490       .  S
C1122      C1123   1.405       .  A
C1123      C1124   1.400       .  A
C1123      H1131   1.083       .  S
C1124      H1132   1.081       .  S
C1125      H1133   1.087       .  S
C1125      C1126   1.347       .  D
C1126      H1134   1.082       .  S
C1127      H1135   1.087       .  S
C1127      C1128   1.344       .  D
C1128      H1136   1.083       .  S
C1137      C1145   1.492       .  S
C1137      C1138   1.404       .  A
C1137      C1142   1.409       .  A
C1138      C1139   1.400       .  A
C1138      H1147   1.083       .  S
C1139      C1140   1.408       .  A
C1139      H1148   1.081       .  S
C1140      C1143   1.490       .  S
C1140      C1141   1.403       .  A
C1141      C1142   1.399       .  A
C1141      H1149   1.084       .  S
C1142      H1150   1.081       .  S
C1143      H1151   1.087       .  S
C1143      C1144   1.346       .  D
C1144      H1152   1.084       .  S
C1145      H1153   1.087       .  S
C1145      C1146   1.346       .  D
C1146      H1154   1.084       .  S
C1155      C1163   1.497       .  S
C1155      C1156   1.406       .  A
C1155      C1160   1.410       .  A
C1156      C1157   1.401       .  A
C1156      H1165   1.084       .  S
C1157      C1158   1.408       .  A
C1157      H1166   1.080       .  S
C1158      C1161   1.495       .  S
C1158      C1159   1.405       .  A
C1159      C1160   1.402       .  A
C1159      H1167   1.084       .  S
C1160      H1168   1.079       .  S
C1161      H1169   1.087       .  S
C1161      C1162   1.348       .  D
C1162      H1170   1.084       .  S
C1163      H1171   1.087       .  S
C1163      C1164   1.349       .  D
C1164      H1172   1.082       .  S
C1173      C1181   1.491       .  S
C1173      C1174   1.405       .  A
C1173      C1178   1.407       .  A
C1174      C1175   1.405       .  A
C1174      H1183   1.083       .  S
C1175      C1176   1.409       .  A
C1175      H1184   1.081       .  S
C1176      C1179   1.491       .  S
C1176      C1177   1.403       .  A
C1177      C1178   1.397       .  A
C1177      H1185   1.083       .  S
C1178      H1186   1.082       .  S
C1179      H1187   1.087       .  S
C1179      C1180   1.347       .  D
C1180      H1188   1.085       .  S
C1181      H1189   1.087       .  S
C1181      C1182   1.346       .  D
C1182      H1190   1.085       .  S
C1191      C1199   1.491       .  S
C1191      C1192   1.403       .  A
C1191      C1196   1.407       .  A
C1192      C1193   1.403       .  A
C1192      H1201   1.084       .  S
C1193      C1194   1.411       .  A
C1193      H1202   1.079       .  S
C1194      C1197   1.496       .  S
C1194      C1195   1.406       .  A
C1195      C1196   1.399       .  A
C1195      H1203   1.084       .  S
C1196      H1204   1.082       .  S
C1197      H1205   1.087       .  S
C1197      C1198   1.349       .  D
C1198      H1206   1.083       .  S
C1199      H1207   1.087       .  S
C1199      C1200   1.346       .  D
C1200      H1208   1.085       .  S
C1209      C1217   1.493       .  S
C1209      C1210   1.405   1_545  A
C1209      C1214   1.409       .  A
C1210      C1211   1.401       .  A
C1210      H1219   1.083       .  S
C1211      C1212   1.408       .  A
C1211      H1220   1.082       .  S
C1212      C1215   1.492       .  S
C1212      C1213   1.405       .  A
C1213      C1214   1.401   1_565  A
C1213      H1221   1.083   1_565  S
C1214      H1222   1.082       .  S
C1215      H1223   1.087       .  S
C1215      C1216   1.348       .  D
C1216      H1224   1.085       .  S
C1217      H1225   1.087       .  S
C1217      C1218   1.347       .  D
C1218      H1226   1.085       .  S
C1227      C1235   1.490       .  S
C1227      C1228   1.403       .  A
C1227      C1232   1.408   1_545  A
C1228      C1229   1.400   1_545  A
C1228      H1237   1.083       .  S
C1229      C1230   1.409       .  A
C1229      H1238   1.081   1_565  S
C1230      C1233   1.493       .  S
C1230      C1231   1.405       .  A
C1231      C1232   1.400       .  A
C1231      H1239   1.083       .  S
C1232      H1240   1.081       .  S
C1233      H1241   1.087       .  S
C1233      C1234   1.346       .  D
C1234      H1242   1.084       .  S
C1235      H1243   1.087       .  S
C1235      C1236   1.346       .  D
C1236      H1244   1.084   1_545  S
C1245      C1253   1.490       .  S
C1245      C1246   1.402   1_455  A
C1245      C1250   1.408       .  A
C1246      C1247   1.398       .  A
C1246      H1255   1.083   1_655  S
C1247      C1248   1.410       .  A
C1247      H1256   1.080       .  S
C1248      C1251   1.495       .  S
C1248      C1249   1.405       .  A
C1249      C1250   1.403   1_655  A
C1249      H1257   1.083       .  S
C1250      H1258   1.082       .  S
C1251      H1259   1.087       .  S
C1251      C1252   1.347       .  D
C1252      H1260   1.083       .  S
C1253      H1261   1.087       .  S
C1253      C1254   1.346       .  D
C1254      H1262   1.084       .  S
C1263      C1271   1.496       .  S
C1263      C1264   1.404       .  A
C1263      C1268   1.410       .  A
C1264      C1265   1.399       .  A
C1264      H1273   1.083       .  S
C1265      C1266   1.408       .  A
C1265      H1274   1.082       .  S
C1266      C1269   1.496       .  S
C1266      C1267   1.406       .  A
C1267      C1268   1.405       .  A
C1267      H1275   1.083       .  S
C1268      H1276   1.081       .  S
C1269      H1277   1.086       .  S
C1269      C1270   1.349       .  D
C1270      H1278   1.084       .  S
C1271      H1279   1.087   1_545  S
C1271      C1272   1.349   1_545  D
C1272      H1280   1.083   1_565  S
C1281      C1289   1.494       .  S
C1281      C1282   1.404       .  A
C1281      C1286   1.410   1_565  A
C1282      C1283   1.400   1_566  A
C1282      H1291   1.084   1_556  S
C1283      C1284   1.409       .  A
C1283      H1292   1.081   1_545  S
C1284      C1287   1.494       .  S
C1284      C1285   1.404   1_554  A
C1285      C1286   1.401       .  A
C1285      H1293   1.084       .  S
C1286      H1294   1.081       .  S
C1287      H1295   1.087       .  S
C1287      C1288   1.347       .  D
C1288      H1296   1.084       .  S
C1289      H1297   1.087       .  S
C1289      C1290   1.346       .  D
C1290      H1298   1.084   1_565  S
C1299      C1307   1.490   1_545  S
C1299      C1300   1.404       .  A
C1299      C1304   1.407       .  A
C1300      C1301   1.401       .  A
C1300      H1309   1.083       .  S
C1301      C1302   1.409       .  A
C1301      H1310   1.081       .  S
C1302      C1305   1.494       .  S
C1302      C1303   1.405       .  A
C1303      C1304   1.400       .  A
C1303      H1311   1.083       .  S
C1304      H1312   1.082   1_545  S
C1305      H1313   1.087       .  S
C1305      C1306   1.347       .  D
C1306      H1314   1.084       .  S
C1307      H1315   1.087   1_565  S
C1307      C1308   1.346       .  D
C1308      H1316   1.085       .  S
C1317      C1325   1.487       .  S
C1317      C1318   1.403   1_565  A
C1317      C1322   1.408   1_556  A
C1318      C1319   1.398   1_556  A
C1318      H1327   1.083       .  S
C1319      C1320   1.408       .  A
C1319      H1328   1.082       .  S
C1320      C1323   1.486       .  S
C1320      C1321   1.403   1_545  A
C1321      C1322   1.399       .  A
C1321      H1329   1.083       .  S
C1322      H1330   1.082       .  S
C1323      H1331   1.087       .  S
C1323      C1324   1.344       .  D
C1324      H1332   1.085       .  S
C1325      H1333   1.087       .  S
C1325      C1326   1.345       .  D
C1326      H1334   1.085       .  S
C1335      C1343   1.489       .  S
C1335      C1336   1.402   1_455  A
C1335      C1340   1.407   1_455  A
C1336      C1337   1.398       .  A
C1336      H1345   1.083   1_655  S
C1337      C1338   1.410       .  A
C1337      H1346   1.079       .  S
C1338      C1341   1.495       .  S
C1338      C1339   1.406       .  A
C1339      C1340   1.400       .  A
C1339      H1347   1.083       .  S
C1340      H1348   1.081   1_655  S
C1341      H1349   1.087       .  S
C1341      C1342   1.348       .  D
C1342      H1350   1.081       .  S
C1343      H1351   1.087       .  S
C1343      C1344   1.345       .  D
C1344      H1352   1.085       .  S
C1353      C1361   1.495       .  S
C1353      C1354   1.404       .  A
C1353      C1358   1.409       .  A
C1354      C1355   1.400       .  A
C1354      H1363   1.083       .  S
C1355      C1356   1.410       .  A
C1355      H1364   1.080       .  S
C1356      C1359   1.496       .  S
C1356      C1357   1.405       .  A
C1357      C1358   1.402       .  A
C1357      H1365   1.083       .  S
C1358      H1366   1.081       .  S
C1359      H1367   1.087       .  S
C1359      C1360   1.347       .  D
C1360      H1368   1.083       .  S
C1361      H1369   1.087       .  S
C1361      C1362   1.348       .  D
C1362      H1370   1.084       .  S
C1371      C1379   1.493       .  S
C1371      C1372   1.405       .  A
C1371      C1376   1.408       .  A
C1372      C1373   1.399       .  A
C1372      H1381   1.083       .  S
C1373      C1374   1.408       .  A
C1373      H1382   1.081       .  S
C1374      C1377   1.493       .  S
C1374      C1375   1.405       .  A
C1375      C1376   1.401       .  A
C1375      H1383   1.083       .  S
C1376      H1384   1.080       .  S
C1377      H1385   1.087       .  S
C1377      C1378   1.347       .  D
C1378      H1386   1.084       .  S
C1379      H1387   1.087       .  S
C1379      C1380   1.349       .  D
C1380      H1388   1.083       .  S
C1389      C1397   1.486       .  S
C1389      C1390   1.403       .  A
C1389      C1394   1.407       .  A
C1390      C1391   1.399       .  A
C1390      H1399   1.083       .  S
C1391      C1392   1.408       .  A
C1391      H1400   1.082       .  S
C1392      C1395   1.488       .  S
C1392      C1393   1.403       .  A
C1393      C1394   1.400       .  A
C1393      H1401   1.083       .  S
C1394      H1402   1.082       .  S
C1395      H1403   1.087       .  S
C1395      C1396   1.344       .  D
C1396      H1404   1.085       .  S
C1397      H1405   1.087       .  S
C1397      C1398   1.345       .  D
C1398      H1406   1.086       .  S
C1407      C1415   1.491       .  S
C1407      C1408   1.404       .  A
C1407      C1412   1.409       .  A
C1408      C1409   1.399       .  A
C1408      H1417   1.083       .  S
C1409      C1410   1.408       .  A
C1409      H1418   1.080       .  S
C1410      C1413   1.490       .  S
C1410      C1411   1.404       .  A
C1411      C1412   1.400       .  A
C1411      H1419   1.083       .  S
C1412      H1420   1.081       .  S
C1413      H1421   1.087       .  S
C1413      C1414   1.347       .  D
C1414      H1422   1.084       .  S
C1415      H1423   1.087       .  S
C1415      C1416   1.347       .  D
C1416      H1424   1.083       .  S
C1425      C1433   1.490       .  S
C1425      C1426   1.403       .  A
C1425      C1430   1.410       .  A
C1426      C1427   1.396   1_455  A
C1426      H1435   1.084       .  S
C1427      C1428   1.407       .  A
C1427      H1436   1.081       .  S
C1428      C1431   1.487       .  S
C1428      C1429   1.402       .  A
C1429      C1430   1.400   1_655  A
C1429      H1437   1.084       .  S
C1430      H1438   1.079       .  S
C1431      H1439   1.087       .  S
C1431      C1432   1.344       .  D
C1432      H1440   1.085       .  S
C1433      H1441   1.087       .  S
C1433      C1434   1.345       .  D
C1434      H1442   1.082       .  S
C1443      C1451   1.494       .  S
C1443      C1444   1.404       .  A
C1443      C1448   1.408       .  A
C1444      C1445   1.401       .  A
C1444      H1453   1.083       .  S
C1445      C1446   1.410       .  A
C1445      H1454   1.080       .  S
C1446      C1449   1.497       .  S
C1446      C1447   1.406       .  A
C1447      C1448   1.402       .  A
C1447      H1455   1.083       .  S
C1448      H1456   1.081       .  S
C1449      H1457   1.087       .  S
C1449      C1450   1.348       .  D
C1450      H1458   1.083       .  S
C1451      H1459   1.087       .  S
C1451      C1452   1.347       .  D
C1452      H1460   1.084       .  S
C1461      C1469   1.490       .  S
C1461      C1462   1.404       .  A
C1461      C1466   1.408       .  A
C1462      C1463   1.400       .  A
C1462      H1471   1.083       .  S
C1463      C1464   1.408       .  A
C1463      H1472   1.081       .  S
C1464      C1467   1.494       .  S
C1464      C1465   1.406       .  A
C1465      C1466   1.402       .  A
C1465      H1473   1.083       .  S
C1466      H1474   1.082       .  S
C1467      H1475   1.087       .  S
C1467      C1468   1.349       .  D
C1468      H1476   1.084       .  S
C1469      H1477   1.087       .  S
C1469      C1470   1.347       .  D
C1470      H1478   1.085       .  S
C1479      C1487   1.491       .  S
C1479      C1480   1.405       .  A
C1479      C1484   1.409       .  A
C1480      C1481   1.401       .  A
C1480      H1489   1.083       .  S
C1481      C1482   1.407   1_556  A
C1481      H1490   1.082       .  S
C1482      C1485   1.489       .  S
C1482      C1483   1.403       .  A
C1483      C1484   1.400   1_554  A
C1483      H1491   1.083       .  S
C1484      H1492   1.081       .  S
C1485      H1493   1.087       .  S
C1485      C1486   1.346       .  D
C1486      H1494   1.085       .  S
C1487      H1495   1.087       .  S
C1487      C1488   1.347       .  D
C1488      H1496   1.084       .  S
C1497      C1505   1.487       .  S
C1497      C1498   1.403       .  A
C1497      C1502   1.407       .  A
C1498      C1499   1.400       .  A
C1498      H1507   1.083       .  S
C1499      C1500   1.408       .  A
C1499      H1508   1.082       .  S
C1500      C1503   1.488       .  S
C1500      C1501   1.404       .  A
C1501      C1502   1.400       .  A
C1501      H1509   1.083       .  S
C1502      H1510   1.082       .  S
C1503      H1511   1.087       .  S
C1503      C1504   1.345       .  D
C1504      H1512   1.085       .  S
C1505      H1513   1.087       .  S
C1505      C1506   1.345       .  D
C1506      H1514   1.086       .  S
C1515      C1523   1.488       .  S
C1515      C1516   1.402       .  A
C1515      C1520   1.408       .  A
C1516      C1517   1.400       .  A
C1516      H1525   1.083       .  S
C1517      C1518   1.409       .  A
C1517      H1526   1.080       .  S
C1518      C1521   1.490       .  S
C1518      C1519   1.404       .  A
C1519      C1520   1.398       .  A
C1519      H1527   1.083       .  S
C1520      H1528   1.082       .  S
C1521      H1529   1.088       .  S
C1521      C1522   1.346       .  D
C1522      H1530   1.083       .  S
C1523      H1531   1.087       .  S
C1523      C1524   1.343       .  D
C1524      H1532   1.085       .  S
C1533      C1541   1.484       .  S
C1533      C1534   1.401       .  A
C1533      C1538   1.409       .  A
C1534      C1535   1.395   1_556  A
C1534      H1543   1.083       .  S
C1535      C1536   1.405       .  A
C1535      H1544   1.083       .  S
C1536      C1539   1.482       .  S
C1536      C1537   1.403       .  A
C1537      C1538   1.402   1_554  A
C1537      H1545   1.083       .  S
C1538      H1546   1.082       .  S
C1539      H1547   1.087       .  S
C1539      C1540   1.343       .  D
C1540      H1548   1.087       .  S
C1541      H1549   1.087       .  S
C1541      C1542   1.343       .  D
C1542      H1550   1.086       .  S
C1551      C1559   1.492       .  S
C1551      C1552   1.404   1_455  A
C1551      C1556   1.410   1_455  A
C1552      C1553   1.397       .  A
C1552      H1561   1.083       .  S
C1553      C1554   1.407       .  A
C1553      H1562   1.083       .  S
C1554      C1557   1.489       .  S
C1554      C1555   1.403       .  A
C1555      C1556   1.403       .  A
C1555      H1563   1.083       .  S
C1556      H1564   1.080   1_655  S
C1557      H1565   1.087       .  S
C1557      C1558   1.344       .  D
C1558      H1566   1.086       .  S
C1559      H1567   1.086       .  S
C1559      C1560   1.347       .  D
C1560      H1568   1.082       .  S
