geometry optimzed in LAMMPS
_audit_creation_date              2020-12-01 
_audit_creation_method            'lammps2cif' 
_symmetry_space_group_name_H-M    'P1' 
_symmetry_Int_Tables_number       1 
_symmetry_cell_setting            triclinic 
loop_ 
_symmetry_equiv_pos_as_xyz 
  x,y,z 
_cell_length_a                    64.39509699 
_cell_length_b                    64.76096912648951 
_cell_length_c                    64.57836589158345 
_cell_angle_alpha                 90.13463058767076 
_cell_angle_beta                  90.10829561640261 
_cell_angle_gamma                 89.95371986238978 
loop_ 
_atom_site_label 
_atom_site_type_symbol 
_atom_site_fract_x 
_atom_site_fract_y 
_atom_site_fract_z 
_atom_site_charge 
O1          O  0.03432501  0.70134821  0.82258101    -0.57300
C2          C  0.05438509  0.66139475  0.86942408     0.75300
O3          O  0.99133789  0.65183313  0.84283460    -0.58500
C4          C  0.02060918  0.70125227  0.80848190     0.75300
C5          C  0.04527679  0.63646644  0.80648678     0.77700
Cd6        Cd  0.02655612  0.66572884  0.83478760     1.37500
O7          O  0.05503807  0.67711837  0.85776738    -0.57300
O8          O  0.05384920  0.65315002  0.81192469    -0.56100
C9          C  0.98790879  0.66434758  0.85761407     0.77600
O10         O  0.02750486  0.63293531  0.81416485    -0.58500
O11         O  0.04094443  0.64787933  0.86490298    -0.56900
O12         O  0.00968946  0.68510351  0.80687041    -0.56900
O13         O  0.00207449  0.67737813  0.86126016    -0.56100
O14         O  0.19443615  0.53201225  0.69004758    -0.57300
C15         C  0.15868157  0.56213645  0.64531514     0.75300
O16         O  0.14116877  0.49775893  0.67077312    -0.58500
C17         C  0.19141885  0.52033751  0.70547512     0.75300
C18         C  0.12754627  0.55161876  0.70470762     0.77700
Cd19       Cd  0.15768638  0.53182824  0.67832432     1.37500
O20         O  0.17241319  0.56199858  0.65941167    -0.57300
O21         O  0.14582563  0.55829995  0.70240793    -0.56100
C22         C  0.15414655  0.49291883  0.65682948     0.77600
O23         O  0.12287637  0.53527188  0.69490701    -0.58500
O24         O  0.14511155  0.54806159  0.64639563    -0.56900
O25         O  0.17295659  0.51447480  0.70845830    -0.56900
O26         O  0.16780268  0.50630247  0.65271930    -0.56100
O27         O  0.97193589  0.82134107  0.70291425    -0.57300
C28         C  0.94540292  0.86927419  0.66895940     0.75300
O29         O  0.00834168  0.84587315  0.65041977    -0.58500
C30         C  0.98573404  0.80758167  0.70046098     0.75300
C31         C  0.95615770  0.80800837  0.63781259     0.77700
Cd32       Cd  0.97515962  0.83582723  0.66755913     1.37500
O33         O  0.94875416  0.85803975  0.68466349    -0.57300
O34         O  0.94947381  0.81009913  0.65609788    -0.56100
C35         C  0.01386262  0.85854302  0.66438850     0.77600
O36         O  0.97178144  0.81891008  0.63305286    -0.58500
O37         O  0.95539174  0.86473321  0.65272992    -0.56900
O38         O  0.99447287  0.80691936  0.68294842    -0.56900
O39         O  0.00150077  0.86065426  0.67942253    -0.56100
O40         O  0.81331475  0.68583906  0.54121386    -0.57300
C41         C  0.85168995  0.64014008  0.56579185     0.75300
O42         O  0.86641104  0.66111186  0.50462637    -0.58500
C43         C  0.81480681  0.70025014  0.52804385     0.75300
C44         C  0.87966823  0.70189691  0.55372084     0.77700
Cd45       Cd  0.84957760  0.67366615  0.53672675     1.37500
O46         O  0.83781435  0.65395914  0.56721316    -0.57300
O47         O  0.86373307  0.69613477  0.56350504    -0.56100
C48         C  0.85061122  0.65113134  0.49844171     0.77600
O49         O  0.88206425  0.69451103  0.53568008    -0.58500
O50         O  0.86435931  0.64193552  0.55097783    -0.56900
O51         O  0.83226145  0.70229392  0.51934705    -0.56900
O52         O  0.83466284  0.65174231  0.50982760    -0.56100
O53         O  0.31690942  0.46427467  0.80478665    -0.57300
C54         C  0.37091541  0.44452224  0.83751216     0.75300
O55         O  0.34666029  0.49972006  0.86175335    -0.58500
C56         C  0.30372167  0.47872800  0.80675656     0.75300
C57         C  0.30594620  0.45092009  0.86756864     0.77700
Cd58       Cd  0.33402613  0.47086843  0.83911898     1.37500
O59         O  0.36594454  0.45609998  0.82251640    -0.57300
O60         O  0.31206536  0.44242891  0.85099238    -0.56100
C61         C  0.35368855  0.51022655  0.84676358     0.77600
O62         O  0.31305883  0.46884526  0.87124309    -0.58500
O63         O  0.35831054  0.44453188  0.85245828    -0.56900
O64         O  0.30512558  0.48940731  0.82309035    -0.56900
O65         O  0.35135201  0.50263483  0.82887987    -0.56100
O66         O  0.19083704  0.30601481  0.96653454    -0.57300
C67         C  0.14061968  0.34043650  0.93894627     0.75300
O68         O  0.16127901  0.35573206  0.00223826    -0.58500
C69         C  0.20104607  0.30797280  0.98326757     0.75300
C70         C  0.20363626  0.36992469  0.95288463     0.77700
Cd71       Cd  0.17375525  0.34053903  0.96924385     1.37500
O72         O  0.15329352  0.32543948  0.93995183    -0.57300
O73         O  0.20014696  0.35244611  0.94485362    -0.56100
C74         C  0.14822009  0.34149177  0.00584836     0.77600
O75         O  0.19273622  0.37455988  0.96858098    -0.58500
O76         O  0.14382142  0.35538618  0.95119272    -0.56900
O77         O  0.19831293  0.32456363  0.99321874    -0.56900
O78         O  0.14684960  0.32739863  0.99231883    -0.56100
O79         O  0.46963297  0.31643558  0.19692978    -0.57300
C80         C  0.44536099  0.36919611  0.16433101     0.75300
O81         O  0.50623644  0.34403577  0.14494613    -0.58500
C82         C  0.48487075  0.30425029  0.19418106     0.75300
C83         C  0.45221177  0.30553381  0.13536609     0.77700
Cd84       Cd  0.47347996  0.33409105  0.16297953     1.37500
O85         O  0.45075803  0.35993820  0.18078339    -0.57300
O86         O  0.44797203  0.30736396  0.15439187    -0.56100
C87         C  0.51304642  0.35470731  0.16002995     0.77600
O88         O  0.46673257  0.31703227  0.12876668    -0.58500
O89         O  0.45263804  0.36211603  0.14758345    -0.56900
O90         O  0.49474220  0.30630257  0.17739129    -0.56900
O91         O  0.50145357  0.35598850  0.17575390    -0.56100
O92         O  0.30369846  0.18715123  0.04002043    -0.57300
C93         C  0.33856720  0.13738126  0.06423816     0.75300
O94         O  0.35452007  0.15642218  0.00420646    -0.58500
C95         C  0.30661576  0.20137518  0.02684587     0.75300
C96         C  0.36887358  0.19982252  0.05466194     0.77700
Cd97       Cd  0.33875436  0.17195261  0.03599635     1.37500
O98         O  0.32394251  0.15053181  0.06437917    -0.57300
O99         O  0.35326130  0.19300565  0.06431235    -0.56100
C100        C  0.33764088  0.14906963  0.99709527     0.77600
O101        O  0.37122178  0.19336784  0.03622423    -0.58500
O102        O  0.35310632  0.14043714  0.05145557    -0.56900
O103        O  0.32433721  0.20209153  0.01845947    -0.56900
O104        O  0.32162167  0.15270544  0.00777437    -0.56100
O105        O  0.65114701  0.81961118  0.44809537    -0.57300
C106        C  0.70266110  0.80014509  0.48485165     0.75300
O107        O  0.69863095  0.86649470  0.46930185    -0.58500
C108        C  0.64136998  0.83635840  0.44495319     0.75300
C109        C  0.65491610  0.84381282  0.51028279     0.77700
Cd110      Cd  0.67704684  0.83497459  0.47255929     1.37500
O111        O  0.69062172  0.79889598  0.46932845    -0.57300
O112        O  0.64990047  0.82921276  0.49823450    -0.56100
C113        C  0.70673198  0.86169097  0.45209060     0.77600
O114        O  0.67051619  0.85454767  0.50510517    -0.58500
O115        O  0.70227544  0.81699105  0.49473259    -0.56900
O116        O  0.64841142  0.85214543  0.45413581    -0.56900
O117        O  0.70115750  0.84461304  0.44433972    -0.56100
O118        O  0.81751698  0.96787796  0.30677633    -0.57300
C119        C  0.86461624  0.94167306  0.34362776     0.75300
O120        O  0.84136708  0.00653520  0.35492301    -0.58500
C121        C  0.80476914  0.98271669  0.30859329     0.75300
C122        C  0.80437368  0.95277197  0.37240028     0.77700
Cd123      Cd  0.83150532  0.97138291  0.34244422     1.37500
O124        O  0.85242608  0.94248052  0.32817178    -0.57300
O125        O  0.80652630  0.94606771  0.35413238    -0.56100
C126        C  0.85647545  0.00826802  0.34241899     0.77600
O127        O  0.81420077  0.96913115  0.37705879    -0.58500
O128        O  0.86095883  0.95397016  0.35844955    -0.56900
O129        O  0.80421613  0.99168697  0.32599477    -0.56900
O130        O  0.86005879  0.99282346  0.33099056    -0.56100
O131        O  0.68349020  0.06291939  0.15037684    -0.57300
C132        C  0.70058287  0.02841446  0.20145056     0.75300
O133        O  0.63204821  0.04281750  0.18998299    -0.58500
C134        C  0.66734966  0.06668172  0.13974304     0.75300
C135        C  0.66290577  0.99789033  0.15341495     0.77700
Cd136      Cd  0.66668152  0.03779553  0.17368627     1.37500
O137        O  0.70267449  0.04198188  0.18748016    -0.57300
O138        O  0.67453050  0.01210778  0.14674987    -0.56100
C139        C  0.63771816  0.05779455  0.20134546     0.77600
O140        O  0.65208435  0.00246020  0.16913974    -0.58500
O141        O  0.68326586  0.01928755  0.20206625    -0.56900
O142        O  0.65092160  0.05736278  0.14502410    -0.56900
O143        O  0.65645757  0.06332021  0.19969343    -0.56100
O144        O  0.55964387  0.17948027  0.35375358    -0.57300
C145        C  0.52163194  0.19625548  0.30152760     0.75300
O146        O  0.53407222  0.13168618  0.31302349    -0.58500
C147        C  0.56007815  0.16464300  0.36655711     0.75300
C148        C  0.49133504  0.16119895  0.35319199     0.77700
Cd149      Cd  0.53084670  0.16488538  0.33222387     1.37500
O150        O  0.53159162  0.20068946  0.31793713    -0.57300
O151        O  0.50199400  0.17761074  0.35357452    -0.56100
C152        C  0.55192762  0.13583325  0.30585240     0.77600
O153        O  0.49876100  0.14624751  0.34284934    -0.58500
O154        O  0.51598568  0.17765448  0.29963794    -0.56900
O155        O  0.54674875  0.15061139  0.36364644    -0.56900
O156        O  0.55974069  0.15294286  0.31116629    -0.56100
O157        O  0.54017420  0.31481586  0.80139281    -0.57300
C158        C  0.56964324  0.36227398  0.83581806     0.75300
O159        O  0.50473600  0.34185341  0.85340751    -0.58500
C160        C  0.52424664  0.30347566  0.80341659     0.75300
C161        C  0.55685557  0.30147111  0.86445635     0.77700
Cd162      Cd  0.53774367  0.33072592  0.83626551     1.37500
O163        O  0.56498687  0.35237765  0.81947009    -0.57300
O164        O  0.56134427  0.30237032  0.84543812    -0.56100
C165        C  0.50084212  0.35590985  0.84027629     0.77600
O166        O  0.54295201  0.31394388  0.87062291    -0.58500
O167        O  0.55971862  0.35742507  0.85196589    -0.56900
O168        O  0.51444570  0.30508838  0.82031076    -0.56900
O169        O  0.51389596  0.35817395  0.82585824    -0.56100
O170        O  0.68328105  0.15433229  0.94163117    -0.57300
C171        C  0.69853782  0.20453507  0.98066113     0.75300
O172        O  0.63345796  0.19245106  0.96957040    -0.58500
C173        C  0.66998283  0.13991810  0.94228181     0.75300
C174        C  0.66566691  0.15328167  0.01013406     0.77700
Cd175      Cd  0.66737183  0.17412302  0.97077031     1.37500
O176        O  0.70335350  0.18742965  0.97237109    -0.57300
O177        O  0.68216862  0.15466362  0.99968249    -0.56100
C178        C  0.63615898  0.19919849  0.95133726     0.77600
O179        O  0.64958713  0.16173636  0.00255012    -0.58500
O180        O  0.67938156  0.20767670  0.98348132    -0.56900
O181        O  0.65567830  0.14169079  0.95555379    -0.56900
O182        O  0.65277581  0.19397020  0.94231059    -0.56100
O183        O  0.69078621  0.46527692  0.20215243    -0.57300
C184        C  0.64295641  0.44118476  0.16608861     0.75300
O185        O  0.66729236  0.50551294  0.15173165    -0.58500
C186        C  0.70259469  0.48091065  0.20185880     0.75300
C187        C  0.70424759  0.45360697  0.13612798     0.77700
Cd188      Cd  0.67629013  0.47091148  0.16660136     1.37500
O189        O  0.65183919  0.44631316  0.18287412    -0.57300
O190        O  0.69899947  0.44393994  0.15228030    -0.56100
C191        C  0.65132828  0.50803269  0.16291409     0.77600
O192        O  0.69681735  0.47158856  0.13387271    -0.58500
O193        O  0.64988771  0.44916590  0.14961391    -0.56900
O194        O  0.70239300  0.49139466  0.18540158    -0.56900
O195        O  0.64682015  0.49318821  0.17469746    -0.56100
O196        O  0.81755684  0.30907867  0.03886164    -0.57300
C197        C  0.86848216  0.34129907  0.06279251     0.75300
O198        O  0.84495083  0.35862105  0.99877008    -0.58500
C199        C  0.80708850  0.30952488  0.02220205     0.75300
C200        C  0.80500699  0.37009249  0.05103049     0.77700
Cd201      Cd  0.83534219  0.34234037  0.03251490     1.37500
O202        O  0.85894175  0.32496868  0.05759322    -0.57300
O203        O  0.80540389  0.35085213  0.05407095    -0.56100
C204        C  0.85823928  0.34489672  0.99403532     0.77600
O205        O  0.81856390  0.37699633  0.03857887    -0.58500
O206        O  0.86240426  0.35788116  0.05442740    -0.56900
O207        O  0.81062153  0.32450862  0.01017225    -0.56900
O208        O  0.86099327  0.33060902  0.00706648    -0.56100
O209        O  0.47078812  0.19559776  0.68454214    -0.57300
C210        C  0.44687587  0.16108758  0.63765365     0.75300
O211        O  0.50415327  0.13866250  0.65958752    -0.58500
C212        C  0.48165570  0.19344734  0.70076778     0.75300
C213        C  0.45471631  0.12901459  0.69979135     0.77700
Cd214      Cd  0.47426230  0.15906312  0.67298884     1.37500
O215        O  0.44568287  0.17412634  0.65225008    -0.57300
O216        O  0.44472290  0.14337927  0.69108225    -0.56100
C217        C  0.51405473  0.15425155  0.65307480     0.77600
O218        O  0.47396349  0.12812268  0.69587338    -0.58500
O219        O  0.46079533  0.14740084  0.63925956    -0.56900
O220        O  0.48881368  0.17555293  0.70404999    -0.56900
O221        O  0.50570020  0.17168874  0.65598593    -0.56100
O222        O  0.32693794  0.05288783  0.85909645    -0.57300
C223        C  0.31030916  0.02123166  0.80612708     0.75300
O224        O  0.37794571  0.03309664  0.81543172    -0.58500
C225        C  0.34294882  0.05708966  0.86971641     0.75300
C226        C  0.34702059  0.98877837  0.85315183     0.77700
Cd227      Cd  0.34419148  0.02930156  0.83427165     1.37500
O228        O  0.30871852  0.03509939  0.81992110    -0.57300
O229        O  0.33222092  0.00118072  0.85641019    -0.56100
C230        C  0.37241450  0.04899569  0.80536685     0.77600
O231        O  0.36139723  0.99528389  0.84146121    -0.58500
O232        O  0.32718746  0.01126557  0.80573178    -0.56900
O233        O  0.35966280  0.04859344  0.86386981    -0.56900
O234        O  0.35435376  0.05569796  0.80904533    -0.56100
O235        O  0.35750434  0.81352390  0.56735471    -0.57300
C236        C  0.30959300  0.79124836  0.53100527     0.75300
O237        O  0.31819180  0.86163178  0.53924062    -0.58500
C238        C  0.37091798  0.82777534  0.56617484     0.75300
C239        C  0.35707219  0.83030700  0.50007364     0.77700
Cd240      Cd  0.33531439  0.82707719  0.53884432     1.37500
O241        O  0.32183827  0.79189375  0.54635190    -0.57300
O242        O  0.36136080  0.81660838  0.51334691    -0.56100
C243        C  0.30863550  0.85914242  0.55615263     0.77600
O244        O  0.34212220  0.84234835  0.50427822    -0.58500
O245        O  0.30928259  0.80696932  0.51944332    -0.56900
O246        O  0.36754469  0.84153231  0.55273856    -0.56900
O247        O  0.31123318  0.84189197  0.56490454    -0.56100
O248        O  0.19303600  0.96823704  0.69683801    -0.57300
C249        C  0.14445235  0.94535973  0.66102276     0.75300
O250        O  0.17430454  0.00728655  0.64543991    -0.58500
C251        C  0.20732193  0.98159423  0.69535374     0.75300
C252        C  0.20709063  0.95114069  0.63069931     0.77700
Cd253      Cd  0.18040119  0.97212192  0.66047403     1.37500
O254        O  0.15766707  0.94514177  0.67561084    -0.57300
O255        O  0.20240465  0.94358048  0.64809747    -0.56100
C256        C  0.15956730  0.01184318  0.65765462     0.77600
O257        O  0.19925147  0.96863595  0.62658197    -0.58500
O258        O  0.14803821  0.95754430  0.64614802    -0.56900
O259        O  0.20941163  0.98994920  0.67782007    -0.56900
O260        O  0.15447306  0.99795154  0.67037565    -0.56100
O261        O  0.19359373  0.68364954  0.47667171    -0.57300
C262        C  0.15365820  0.63927682  0.45136588     0.75300
O263        O  0.13940458  0.66642425  0.51379054    -0.58500
C264        C  0.19281990  0.69845237  0.48952292     0.75300
C265        C  0.12871439  0.70262479  0.45851879     0.77700
Cd266      Cd  0.15635467  0.67420296  0.47959191     1.37500
O267        O  0.17083744  0.64773751  0.45594000    -0.57300
O268        O  0.14640418  0.69775632  0.45148322    -0.56100
C269        C  0.15266572  0.65270321  0.51855330     0.77600
O270        O  0.12371210  0.69469053  0.47576861    -0.58500
O271        O  0.13783809  0.64733008  0.45962224    -0.56900
O272        O  0.17509859  0.70279541  0.49677267    -0.56900
O273        O  0.16680610  0.64931944  0.50549581    -0.56100
O274        O  0.03477544  0.81412903  0.30258011    -0.57300
C275        C  0.06119667  0.86260662  0.33833510     0.75300
O276        O  0.99916322  0.83981325  0.35691268    -0.58500
C277        C  0.02077829  0.80063311  0.30524566     0.75300
C278        C  0.04839068  0.80116253  0.36840366     0.77700
Cd279      Cd  0.03109659  0.82938681  0.33831968     1.37500
O280        O  0.06034900  0.84978576  0.32346767    -0.57300
O281        O  0.05900333  0.80902240  0.35400308    -0.56100
C282        C  0.99274100  0.85202931  0.34300976     0.77600
O283        O  0.02973066  0.80716954  0.36969139    -0.58500
O284        O  0.04816333  0.86020250  0.35277350    -0.56900
O285        O  0.01174740  0.80096248  0.32255582    -0.56900
O286        O  0.00432544  0.85399792  0.32731688    -0.56100
O287        O  0.80524140  0.53642024  0.32450953    -0.57300
C288        C  0.84249913  0.56039125  0.37157494     0.75300
O289        O  0.85602360  0.49627478  0.34338109    -0.58500
C290        C  0.80662487  0.52215812  0.31108818     0.75300
C291        C  0.87027259  0.54957918  0.30825944     0.77700
Cd292      Cd  0.84134539  0.53129916  0.33760909     1.37500
O293        O  0.82603759  0.55757016  0.36114211    -0.57300
O294        O  0.85173348  0.55569506  0.31027714    -0.56100
C295        C  0.84451358  0.49190792  0.35865142     0.77600
O296        O  0.87573741  0.53476376  0.31987648    -0.58500
O297        O  0.85828836  0.55012204  0.36606559    -0.56900
O298        O  0.82346080  0.51214360  0.31061832    -0.56900
O299        O  0.83212008  0.50594936  0.36435855    -0.56100
O300        O  0.96670255  0.69118614  0.18829072    -0.57300
C301        C  0.94201503  0.65285565  0.14257081     0.75300
O302        O  0.00831678  0.64211145  0.16358057    -0.58500
C303        C  0.98088652  0.69039656  0.20189462     0.75300
C304        C  0.95644413  0.62613245  0.20309885     0.77700
Cd305      Cd  0.97355072  0.65592069  0.17441046     1.37500
O306        O  0.94602738  0.66977265  0.15165170    -0.57300
O307        O  0.94712068  0.64245682  0.19775253    -0.56100
C308        C  0.01156732  0.65589285  0.15002719     0.77600
O309        O  0.97434810  0.62323954  0.19539001    -0.58500
O310        O  0.95276739  0.63744356  0.14812145    -0.56900
O311        O  0.99122433  0.67382391  0.20280403    -0.56900
O312        O  0.99732258  0.66911393  0.14765350    -0.56100
O313        O  0.67989933  0.94398866  0.85939013    -0.57300
C314        C  0.69990703  0.98098944  0.80952519     0.75300
O315        O  0.63121388  0.96769087  0.81620127    -0.58500
C316        C  0.66309766  0.94041388  0.86896543     0.75300
C317        C  0.66321509  0.00863764  0.85820047     0.77700
Cd318      Cd  0.66496404  0.97019002  0.83538782     1.37500
O319        O  0.70145568  0.96676249  0.82291669    -0.57300
O320        O  0.67508384  0.99386307  0.86295400    -0.56100
C321        C  0.63642262  0.95168532  0.80606505     0.77600
O322        O  0.65075987  0.00532013  0.84330517    -0.58500
O323        O  0.68234224  0.98956615  0.80796906    -0.56900
O324        O  0.64726759  0.95005829  0.86246544    -0.56900
O325        O  0.65456102  0.94485830  0.80926566    -0.56100
O326        O  0.54703206  0.79986223  0.68796613    -0.57300
C327        C  0.56792196  0.83893091  0.63922141     0.75300
O328        O  0.50586959  0.84925705  0.66465359    -0.58500
C329        C  0.53252027  0.80057781  0.70121138     0.75300
C330        C  0.55746327  0.86550380  0.70249865     0.77700
Cd331      Cd  0.54028920  0.83511993  0.67427347     1.37500
O332        O  0.56948259  0.82385592  0.65164894    -0.57300
O333        O  0.56605175  0.84831957  0.69885716    -0.56100
C334        C  0.50196231  0.83501863  0.65167392     0.77600
O335        O  0.54040206  0.86884027  0.69324162    -0.58500
O336        O  0.55384137  0.85192161  0.64327873    -0.56900
O337        O  0.52179738  0.81694492  0.70166552    -0.56900
O338        O  0.51544816  0.82095235  0.64963884    -0.56100
O339        O  0.81697510  0.03955571  0.70293350    -0.57300
C340        C  0.86613543  0.06288803  0.66599442     0.75300
O341        O  0.84468499  0.00292249  0.64986828    -0.58500
C342        C  0.80409299  0.02478617  0.70165676     0.75300
C343        C  0.80304100  0.05292856  0.63800401     0.77700
Cd344      Cd  0.83148285  0.03455270  0.66752546     1.37500
O345        O  0.85353785  0.06326963  0.68106578    -0.57300
O346        O  0.80801158  0.06150041  0.65489197    -0.56100
C347        C  0.85432866  0.99626745  0.66567295     0.77600
O348        O  0.81096265  0.03530667  0.63459115    -0.58500
O349        O  0.86265029  0.04967359  0.65199004    -0.56900
O350        O  0.80407183  0.01481747  0.68478132    -0.56900
O351        O  0.85318486  0.00713453  0.68193695    -0.56100
O352        O  0.68550701  0.19976248  0.53528362    -0.57300
C353        C  0.64122001  0.16128626  0.56351198     0.75300
O354        O  0.66366967  0.14563157  0.49961780    -0.58500
C355        C  0.69839983  0.19829894  0.52053366     0.75300
C356        C  0.70504596  0.13690134  0.55028517     0.77700
Cd357      Cd  0.67342886  0.16339929  0.53248130     1.37500
O358        O  0.65088654  0.17796430  0.55998401    -0.57300
O359        O  0.69990386  0.15400365  0.55825980    -0.56100
C360        C  0.64937891  0.15831621  0.49501277     0.77600
O361        O  0.69544049  0.13176587  0.53389721    -0.58500
O362        O  0.64666051  0.14570512  0.55296069    -0.56900
O363        O  0.69933622  0.18105774  0.51138887    -0.56900
O364        O  0.64602543  0.17271041  0.50783973    -0.56100
O365        O  0.47109667  0.68249757  0.80358253    -0.57300
C366        C  0.44368198  0.63714676  0.84215334     0.75300
O367        O  0.50832349  0.66487350  0.85431414    -0.58500
C368        C  0.48491193  0.69629870  0.80580165     0.75300
C369        C  0.45357142  0.69925236  0.86885106     0.77700
Cd370      Cd  0.47290756  0.67076174  0.84039879     1.37500
O371        O  0.44544936  0.64811653  0.82597488    -0.57300
O372        O  0.44642186  0.69544629  0.85099639    -0.56100
C373        C  0.51188078  0.64916224  0.84310083     0.77600
O374        O  0.46985978  0.68949381  0.87406477    -0.58500
O375        O  0.45521974  0.64189701  0.85733303    -0.56900
O376        O  0.49217291  0.69863331  0.82383381    -0.56900
O377        O  0.49702984  0.64305559  0.83184797    -0.56100
O378        O  0.29829059  0.81272109  0.96468075    -0.57300
C379        C  0.33647653  0.86090390  0.94101895     0.75300
O380        O  0.35121822  0.83995453  0.00136573    -0.58500
C381        C  0.30013596  0.79897570  0.97855872     0.75300
C382        C  0.36337644  0.79725115  0.95082499     0.77700
Cd383      Cd  0.33420134  0.82625076  0.96931247     1.37500
O384        O  0.32151031  0.84820284  0.94013056    -0.57300
O385        O  0.34665768  0.80260284  0.94206091    -0.56100
C386        C  0.33492778  0.84839822  0.00854363     0.77600
O387        O  0.36682250  0.80519297  0.96848870    -0.58500
O388        O  0.34998567  0.85770791  0.95487000    -0.56900
O389        O  0.31747623  0.79793283  0.98774653    -0.56900
O390        O  0.31866885  0.84608671  0.99777208    -0.56100
O391        O  0.31617897  0.53756175  0.20539055    -0.57300
C392        C  0.36281526  0.56165731  0.16682101     0.75300
O393        O  0.33899092  0.49965669  0.15310801    -0.58500
C394        C  0.29997758  0.52677945  0.20273597     0.75300
C395        C  0.30177796  0.54794333  0.13732476     0.77700
Cd396      Cd  0.32891100  0.53287746  0.16916677     1.37500
O397        O  0.35047993  0.56189368  0.18209832    -0.57300
O398        O  0.30705484  0.55902941  0.15261426    -0.56100
C399        C  0.35141138  0.49432093  0.16734578     0.77600
O400        O  0.30943768  0.52994552  0.13645491    -0.58500
O401        O  0.35905060  0.54869474  0.15264607    -0.56900
O402        O  0.29732311  0.51936618  0.18481611    -0.56900
O403        O  0.35284961  0.50642316  0.18267769    -0.56100
O404        O  0.18788964  0.68781948  0.03426518    -0.57300
C405        C  0.13972211  0.65606504  0.05978078     0.75300
O406        O  0.16341918  0.63706152  0.99644845    -0.58500
C407        C  0.20030374  0.68647308  0.01914128     0.75300
C408        C  0.19876520  0.62155876  0.04869261     0.77700
Cd409      Cd  0.17300030  0.65299176  0.03002111     1.37500
O410        O  0.15366564  0.66978142  0.05872321    -0.57300
O411        O  0.19797231  0.64000257  0.05504078    -0.56100
C412        C  0.14892762  0.64986636  0.99295274     0.77600
O413        O  0.18795585  0.61735602  0.03283113    -0.58500
O414        O  0.14143597  0.64107715  0.04727688    -0.56900
O415        O  0.20012975  0.66965655  0.00914997    -0.56900
O416        O  0.14600448  0.66387234  0.00629080    -0.56100
O417        O  0.80682997  0.31404782  0.46592548    -0.57300
C418        C  0.84476973  0.36056835  0.44207193     0.75300
O419        O  0.85955805  0.33975231  0.50253335    -0.58500
C420        C  0.80829936  0.30054118  0.48005020     0.75300
C421        C  0.87002402  0.29597716  0.45204524     0.77700
Cd422      Cd  0.84268240  0.32657690  0.47037054     1.37500
O423        O  0.82906459  0.34877746  0.44236082    -0.57300
O424        O  0.85316597  0.30166984  0.44377039    -0.56100
C425        C  0.84400042  0.35052288  0.50803382     0.77600
O426        O  0.87464759  0.30454613  0.46915190    -0.58500
O427        O  0.85958018  0.35611405  0.45415724    -0.56900
O428        O  0.82538273  0.29952677  0.48971562    -0.56900
O429        O  0.82818204  0.34970926  0.49643992    -0.56100
O430        O  0.97429006  0.18382424  0.30476058    -0.57300
C431        C  0.94908367  0.13402632  0.33670443     0.75300
O432        O  0.01158818  0.16121400  0.35729475    -0.58500
C433        C  0.98860669  0.19703128  0.30718115     0.75300
C434        C  0.95583732  0.19397159  0.37071915     0.77700
Cd435      Cd  0.97733615  0.16866898  0.34028493     1.37500
O436        O  0.95156583  0.14645538  0.32176349    -0.57300
O437        O  0.94972401  0.19205519  0.35220714    -0.56100
C438        C  0.01604728  0.14601657  0.34569473     0.77600
O439        O  0.97235312  0.18440743  0.37543773    -0.58500
O440        O  0.95905579  0.13800258  0.35313198    -0.56900
O441        O  0.99748070  0.19713048  0.32466316    -0.56900
O442        O  0.00265024  0.14151643  0.33209316    -0.56100
O443        O  0.19332641  0.47486275  0.31921784    -0.57300
C444        C  0.16170842  0.44415214  0.36686870     0.75300
O445        O  0.13700428  0.50305819  0.35144125    -0.58500
C446        C  0.19001794  0.49003833  0.30720766     0.75300
C447        C  0.13263318  0.45572047  0.30448172     0.77700
Cd448      Cd  0.15850081  0.47526576  0.33504849     1.37500
O449        O  0.17761364  0.45015361  0.35702139    -0.57300
O450        O  0.14971624  0.44817711  0.31046258    -0.56100
C451        C  0.15224671  0.51139718  0.36073922     0.77600
O452        O  0.12694535  0.47246256  0.31303001    -0.58500
O453        O  0.14456171  0.45219338  0.36170589    -0.56900
O454        O  0.17225322  0.49824413  0.30823676    -0.56900
O455        O  0.16979180  0.50311375  0.35786446    -0.56100
O456        O  0.04112030  0.30297223  0.18572508    -0.57300
C457        C  0.06164090  0.33894375  0.13616645     0.75300
O458        O  0.00463229  0.35920908  0.16231161    -0.58500
C459        C  0.02861650  0.30468651  0.20077161     0.75300
C460        C  0.05633787  0.36868489  0.19964454     0.77700
Cd461      Cd  0.03602996  0.33921151  0.17270359     1.37500
O462        O  0.06336977  0.32493014  0.14974759    -0.57300
O463        O  0.06612834  0.35467803  0.19012204    -0.56100
C464        C  0.99664138  0.34438352  0.15221705     0.77600
O465        O  0.03701346  0.36974258  0.19611235    -0.58500
O466        O  0.04844671  0.35299042  0.13964137    -0.56900
O467        O  0.01955114  0.32193230  0.20242402    -0.56900
O468        O  0.00673601  0.32761953  0.15187655    -0.56100
O469        O  0.81291791  0.69876750  0.97685016    -0.57300
C470        C  0.86173621  0.66432327  0.95085751     0.75300
O471        O  0.84158639  0.64385016  0.00856190    -0.58500
C472        C  0.79866303  0.69562456  0.99002595     0.75300
C473        C  0.79903096  0.63514089  0.95865692     0.77700
Cd474      Cd  0.82697339  0.66333509  0.97894722     1.37500
O475        O  0.85057603  0.68022527  0.95367218    -0.57300
O476        O  0.80386768  0.65248187  0.95111441    -0.56100
C477        C  0.84849450  0.65965712  0.01793443     0.77600
O478        O  0.80677234  0.63072288  0.97617657    -0.58500
O479        O  0.85661828  0.64831589  0.96075049    -0.56900
O480        O  0.79729840  0.67757194  0.99736432    -0.56900
O481        O  0.84512674  0.67682621  0.00932036    -0.56100
O482        O  0.68361131  0.52800821  0.80233358    -0.57300
C483        C  0.64067965  0.56092956  0.83945082     0.75300
O484        O  0.66743013  0.49845154  0.85870419    -0.58500
C485        C  0.70202016  0.52177536  0.80538438     0.75300
C486        C  0.70173216  0.55140765  0.86941483     0.77700
Cd487      Cd  0.67462045  0.53142801  0.83974113     1.37500
O488        O  0.65366126  0.56031704  0.82474634    -0.57300
O489        O  0.69918023  0.55797092  0.85114242    -0.56100
C490        C  0.65598440  0.49094493  0.84459314     0.77600
O491        O  0.69195345  0.53507550  0.87409207    -0.58500
O492        O  0.64351324  0.54817827  0.85396494    -0.56900
O493        O  0.70768648  0.52094067  0.82411070    -0.56900
O494        O  0.65309670  0.50202403  0.82878148    -0.56100
O495        O  0.67635798  0.85509458  0.06655427    -0.57300
C496        C  0.69321917  0.80311761  0.03124588     0.75300
O497        O  0.62743600  0.81226948  0.04037750    -0.58500
C498        C  0.66063807  0.86674168  0.06845966     0.75300
C499        C  0.66016591  0.85414457  0.99989477     0.77700
Cd500      Cd  0.66064021  0.83249473  0.03938149     1.37500
O501        O  0.69574572  0.81755520  0.04432995    -0.57300
O502        O  0.67637781  0.85201951  0.01075337    -0.56100
C503        C  0.63121558  0.80398519  0.05780091     0.77600
O504        O  0.64376640  0.84612697  0.00721877    -0.58500
O505        O  0.67588550  0.80254028  0.02200435    -0.56900
O506        O  0.64511982  0.86236269  0.05724680    -0.56900
O507        O  0.64811042  0.80909936  0.06634677    -0.56100
O508        O  0.53410142  0.68260073  0.20440930    -0.57300
C509        C  0.55990446  0.63504241  0.16726858     0.75300
O510        O  0.49750963  0.66233593  0.15185280    -0.58500
C511        C  0.52053758  0.69664054  0.20215213     0.75300
C512        C  0.55155174  0.69730899  0.13878810     0.77700
Cd513      Cd  0.53178153  0.66978089  0.16802697     1.37500
O514        O  0.55929520  0.64710769  0.18277457    -0.57300
O515        O  0.55888743  0.69401031  0.15666660    -0.56100
C516        C  0.49271532  0.64830211  0.16465928     0.77600
O517        O  0.53497267  0.68778607  0.13417677    -0.58500
O518        O  0.54797718  0.63936712  0.15230505    -0.56900
O519        O  0.51261995  0.69825010  0.18430483    -0.56900
O520        O  0.50612939  0.64411499  0.17833371    -0.56100
O521        O  0.46678151  0.80495103  0.32019740    -0.57300
C522        C  0.44589065  0.83877772  0.37128404     0.75300
O523        O  0.50405742  0.85887203  0.34737305    -0.58500
C524        C  0.48105701  0.80611134  0.30675923     0.75300
C525        C  0.45250865  0.86882156  0.30616369     0.77700
Cd526      Cd  0.47248771  0.84013462  0.33483595     1.37500
O527        O  0.44631298  0.82420126  0.35815694    -0.57300
O528        O  0.44357727  0.85306289  0.31342586    -0.56100
C529        C  0.51198943  0.84313256  0.35601323     0.77600
O530        O  0.47085603  0.87202136  0.31259620    -0.58500
O531        O  0.45741903  0.85407498  0.36733465    -0.56900
O532        O  0.49127321  0.82278943  0.30649336    -0.56900
O533        O  0.50199766  0.82640356  0.35447682    -0.56100
O534        O  0.30267604  0.96486804  0.18549252    -0.57300
C535        C  0.33729993  0.93867241  0.13714745     0.75300
O536        O  0.35482284  0.00189231  0.16413415    -0.58500
C537        C  0.30577556  0.97777166  0.19997715     0.75300
C538        C  0.36821489  0.94614062  0.19868102     0.77700
Cd539      Cd  0.33879932  0.96717520  0.17163027     1.37500
O540        O  0.32158680  0.94147465  0.14864489    -0.57300
O541        O  0.34983047  0.93984147  0.19588012    -0.56100
C542        C  0.34163305  0.00695825  0.15042369     0.77600
O543        O  0.37331722  0.96227219  0.18879089    -0.58500
O544        O  0.35350715  0.94864747  0.14195505    -0.56900
O545        O  0.32393413  0.98501838  0.20144607    -0.56900
O546        O  0.32807492  0.99347162  0.14625947    -0.56100
O547        O  0.35538348  0.18148953  0.44807320    -0.57300
C548        C  0.30469281  0.20218807  0.48166871     0.75300
O549        O  0.31039645  0.13450900  0.47450224    -0.58500
C550        C  0.36456506  0.16457607  0.44430065     0.75300
C551        C  0.35475092  0.16342503  0.51141215     0.77700
Cd552      Cd  0.33112414  0.16681367  0.47358983     1.37500
O553        O  0.31831637  0.20267630  0.46756010    -0.57300
O554        O  0.35832986  0.17704963  0.49792722    -0.56100
C555        C  0.30245467  0.13698022  0.45670621     0.77600
O556        O  0.34019846  0.15087689  0.50739196    -0.58500
O557        O  0.30323953  0.18544875  0.49157272    -0.56900
O558        O  0.35793698  0.14873315  0.45360607    -0.56900
O559        O  0.30799486  0.15295040  0.44691834    -0.56100
O560        O  0.19000175  0.03210812  0.31099476    -0.57300
C561        C  0.14150185  0.05224015  0.34945313     0.75300
O562        O  0.17005028  0.99043287  0.36193618    -0.58500
C563        C  0.20433623  0.01868977  0.31159483     0.75300
C564        C  0.20561939  0.04526286  0.37541943     0.77700
Cd565      Cd  0.17722552  0.02519222  0.34673111     1.37500
O566        O  0.15378166  0.05274093  0.33414591    -0.57300
O567        O  0.19945307  0.05340436  0.35875698    -0.56100
C568        C  0.15765368  0.98489315  0.34765430     0.77600
O569        O  0.19840239  0.02747544  0.37938147    -0.58500
O570        O  0.14544815  0.03904882  0.36335508    -0.56900
O571        O  0.20576479  0.00843244  0.32816607    -0.56900
O572        O  0.15440715  0.99800226  0.33350837    -0.56100
O573        O  0.82466980  0.44741591  0.64390157    -0.57300
C574        C  0.80744945  0.48247216  0.69606108     0.75300
O575        O  0.87419922  0.46640326  0.68815425    -0.58500
C576        C  0.84105229  0.44388587  0.63362712     0.75300
C577        C  0.85051434  0.51051200  0.64978306     0.77700
Cd578      Cd  0.84151229  0.47154891  0.66888205     1.37500
O579        O  0.80412152  0.47445616  0.67843821    -0.57300
O580        O  0.83441881  0.50017603  0.64563140    -0.56100
C581        C  0.86826108  0.45019431  0.69736872     0.77600
O582        O  0.86265684  0.50313005  0.66331501    -0.58500
O583        O  0.82627501  0.48514539  0.70085049    -0.56900
O584        O  0.85743266  0.45263530  0.63992846    -0.56900
O585        O  0.85026986  0.44359347  0.69295417    -0.56100
O586        O  0.96904274  0.30208071  0.81436300    -0.57300
C587        C  0.94406635  0.33773487  0.86312265     0.75300
O588        O  0.00520500  0.35586414  0.83737981    -0.58500
C589        C  0.98265228  0.30453868  0.80041907     0.75300
C590        C  0.95135120  0.36650834  0.80024287     0.77700
Cd591      Cd  0.97215561  0.33797817  0.82816909     1.37500
O592        O  0.94368506  0.32341480  0.84967742    -0.57300
O593        O  0.94231442  0.35155693  0.80890184    -0.56100
C594        C  0.01144695  0.34182738  0.84960134     0.77600
O595        O  0.97021976  0.36911816  0.80524688    -0.58500
O596        O  0.95760313  0.35164434  0.86041713    -0.56900
O597        O  0.99103248  0.32212192  0.79955359    -0.56900
O598        O  0.99926066  0.32672802  0.85210562    -0.56100
O599        O  0.03628756  0.18106315  0.69814366    -0.57300
C600        C  0.06568664  0.13671473  0.66020639     0.75300
O601        O  0.00146077  0.16284102  0.64437549    -0.58500
C602        C  0.02542257  0.19713373  0.69518759     0.75300
C603        C  0.05679814  0.19838822  0.63377498     0.77700
Cd604      Cd  0.03592725  0.17006157  0.66118565     1.37500
O605        O  0.06357187  0.14794825  0.67618359    -0.57300
O606        O  0.06391990  0.19365623  0.65140279    -0.56100
C607        C  0.99607867  0.14938666  0.65761029     0.77600
O608        O  0.03986682  0.18983358  0.62845239    -0.58500
O609        O  0.05408866  0.14088384  0.64492050    -0.56900
O610        O  0.01995983  0.20062460  0.67672027    -0.56900
O611        O  0.00939561  0.14511526  0.67131404    -0.56100
O612        O  0.20078148  0.32232419  0.53602322    -0.57300
C613        C  0.16357470  0.36950060  0.56273136     0.75300
O614        O  0.14571447  0.34628887  0.50260579    -0.58500
C615        C  0.19800912  0.30842154  0.52240528     0.75300
C616        C  0.13725340  0.30616837  0.55456201     0.77700
Cd617      Cd  0.16455162  0.33530787  0.53432079     1.37500
O618        O  0.17918903  0.35756400  0.56210563    -0.57300
O619        O  0.15512010  0.31060297  0.56138416    -0.56100
C620        C  0.16077524  0.35679884  0.49560522     0.77600
O621        O  0.13170662  0.31531316  0.53809543    -0.58500
O622        O  0.14888816  0.36561372  0.55031571    -0.56900
O623        O  0.18001042  0.30721125  0.51461542    -0.56900
O624        O  0.17706652  0.35740955  0.50656103    -0.56100
C625        C  0.12386113  0.29091303  0.56537146     0.01800
C626        C  0.12218092  0.29136022  0.58723149     0.04700
C627        C  0.11069221  0.27611264  0.59766845    -0.11400
C628        C  0.10101460  0.26013209  0.58644908     0.24000
C629        C  0.10235099  0.25975409  0.56469564    -0.12000
C630        C  0.11352726  0.27519086  0.55413286     0.05400
C631        C  0.08941527  0.24373238  0.59760807     0.27800
C632        C  0.09987642  0.22598894  0.60470090    -0.12700
C633        C  0.08910509  0.21090945  0.61611616     0.05900
C634        C  0.06773312  0.21343440  0.62040164    -0.08600
C635        C  0.05719468  0.23101055  0.61284808     0.06700
C636        C  0.06802788  0.24609515  0.60148764    -0.13000
Br637      Br  0.08912524  0.23768490  0.54951761    -0.05100
Br638      Br  0.13478369  0.31328016  0.60314346     0.00600
Br639      Br  0.10360780  0.18647302  0.62524281     0.01000
Br640      Br  0.05375608  0.27029987  0.59146907    -0.03400
Br641      Br  0.11533850  0.27396062  0.52433200     0.01100
Br642      Br  0.10806101  0.27705291  0.62745242    -0.02700
Br643      Br  0.12902183  0.22244197  0.59868702    -0.03500
Br644      Br  0.02821814  0.23521459  0.61913900     0.00400
C645        C  0.98870898  0.28793858  0.78578131     0.01800
C646        C  0.99310595  0.26782569  0.79298753     0.04700
C647        C  0.99900133  0.25222074  0.77892120    -0.11400
C648        C  0.00208300  0.25698443  0.75784916     0.24000
C649        C  0.99876521  0.27733191  0.75085556    -0.12000
C650        C  0.99119393  0.29249344  0.76453298     0.05400
C651        C  0.00793254  0.24055703  0.74276888     0.27800
C652        C  0.02850127  0.23310296  0.74181913    -0.12700
C653        C  0.03414233  0.21840380  0.72669146     0.05900
C654        C  0.01928065  0.21127226  0.71222560    -0.08600
C655        C  0.99857451  0.21847095  0.71350380     0.06700
C656        C  0.99293048  0.23292539  0.72879904    -0.13000
Br657      Br  0.00495421  0.28451285  0.72251486    -0.05100
Br658      Br  0.99255264  0.26186184  0.82224852     0.00600
Br659      Br  0.06261776  0.20919174  0.72506558     0.01000
Br660      Br  0.96454003  0.24246063  0.73060601    -0.03400
Br661      Br  0.98289068  0.31904393  0.75366289     0.01100
Br662      Br  0.00271521  0.22425300  0.78847498    -0.02700
Br663      Br  0.04913056  0.24357783  0.76084531    -0.03500
Br664      Br  0.97754791  0.20821935  0.69472419     0.00400
C665        C  0.88151138  0.43955946  0.71273544     0.01800
C666        C  0.87403516  0.43614246  0.73297541     0.04700
C667        C  0.88624986  0.42526818  0.74741250    -0.11400
C668        C  0.90594714  0.41768705  0.74168661     0.24000
C669        C  0.91362602  0.42152423  0.72163451    -0.12000
C670        C  0.90150050  0.43254640  0.70721952     0.05400
C671        C  0.91806402  0.40472117  0.75638678     0.27800
C672        C  0.93249318  0.41377016  0.77006233    -0.12700
C673        C  0.94381040  0.40137342  0.78407108     0.05900
C674        C  0.94031507  0.37978194  0.78486937    -0.08600
C675        C  0.92585429  0.37080124  0.77087872     0.06700
C676        C  0.91497888  0.38323270  0.75664739    -0.13000
Br677      Br  0.94056501  0.41111269  0.71382221    -0.05100
Br678      Br  0.84736611  0.44706266  0.74123017     0.00600
Br679      Br  0.96344048  0.41445216  0.80252137     0.01000
Br680      Br  0.89582064  0.37087970  0.73716229    -0.03400
Br681      Br  0.91189517  0.43710688  0.67959642     0.01100
Br682      Br  0.87599513  0.42053408  0.77504813    -0.02700
Br683      Br  0.93637409  0.44331239  0.76967986    -0.03500
Br684      Br  0.92128881  0.34129305  0.77012771     0.00400
C685        C  0.29110951  0.22009082  0.48656275     0.01800
C686        C  0.28770749  0.22580983  0.50744866     0.04700
C687        C  0.27368475  0.24174378  0.51233287    -0.11400
C688        C  0.26265853  0.25185370  0.49650020     0.24000
C689        C  0.26645498  0.24674167  0.47564089    -0.12000
C690        C  0.28076541  0.23100994  0.47062793     0.05400
C691        C  0.24599568  0.26671693  0.50207471     0.27800
C692        C  0.22589769  0.25929986  0.50624616    -0.12700
C693        C  0.21045052  0.27281795  0.51355382     0.05900
C694        C  0.21473397  0.29412405  0.51579834    -0.08600
C695        C  0.23474436  0.30164787  0.51091857     0.06700
C696        C  0.25041094  0.28788809  0.50439588    -0.13000
Br697      Br  0.25139191  0.26091075  0.45407001    -0.05100
Br698      Br  0.30242997  0.21223705  0.52964460     0.00600
Br699      Br  0.18388329  0.26163614  0.52174360     0.01000
Br700      Br  0.27799285  0.29788831  0.49858457    -0.03400
Br701      Br  0.28493378  0.22366136  0.44195232     0.01100
Br702      Br  0.26919120  0.24965639  0.54083862    -0.02700
Br703      Br  0.21961520  0.23046320  0.50186111    -0.03500
Br704      Br  0.24056853  0.33086408  0.51200347     0.00400
C705        C  0.22045823  0.05629764  0.38925816     0.01800
C706        C  0.23783906  0.06656156  0.38067331     0.04700
C707        C  0.25107389  0.07839059  0.39336584    -0.11400
C708        C  0.24679390  0.08065081  0.41460259     0.24000
C709        C  0.22968564  0.07031423  0.42332889    -0.12000
C710        C  0.21675681  0.05785558  0.41079812     0.05400
C711        C  0.25993930  0.09466785  0.42736195     0.27800
C712        C  0.27764316  0.08702115  0.43766500    -0.12700
C713        C  0.29136018  0.10071899  0.44777645     0.05900
C714        C  0.28735756  0.12219510  0.44764813    -0.08600
C715        C  0.26915888  0.12969571  0.43795739     0.06700
C716        C  0.25558704  0.11598141  0.42778779    -0.13000
Br717      Br  0.22359375  0.07401425  0.45233275    -0.05100
Br718      Br  0.24406332  0.06435565  0.35152288     0.00600
Br719      Br  0.31633960  0.09001333  0.46039662     0.01000
Br720      Br  0.23122181  0.12641225  0.41384096    -0.03400
Br721      Br  0.19333000  0.04403382  0.42314079     0.01100
Br722      Br  0.27508616  0.09190667  0.38168275    -0.02700
Br723      Br  0.28343663  0.05779343  0.43709836    -0.03500
Br724      Br  0.26234105  0.15875826  0.43899769     0.00400
C725        C  0.28921053  0.98446228  0.21444469     0.01800
C726        C  0.27710955  0.96983155  0.22522893     0.04700
C727        C  0.26281723  0.97644850  0.24036906    -0.11400
C728        C  0.26017929  0.99767098  0.24446554     0.24000
C729        C  0.27174365  0.01230924  0.23329395    -0.12000
C730        C  0.28627542  0.00575875  0.21840721     0.05400
C731        C  0.24602519  0.00446570  0.26131274     0.27800
C732        C  0.22496914  0.00863908  0.25713845    -0.12700
C733        C  0.21134498  0.01388844  0.27340730     0.05900
C734        C  0.21878491  0.01495354  0.29403013    -0.08600
C735        C  0.24014518  0.01144335  0.29796345     0.06700
C736        C  0.25362892  0.00614512  0.28167652    -0.13000
Br737      Br  0.26799670  0.04136559  0.23885298    -0.05100
Br738      Br  0.28090740  0.94066456  0.22038104     0.00600
Br739      Br  0.18233089  0.01832810  0.26727299     0.01000
Br740      Br  0.28262884  0.00077887  0.28719924    -0.03400
Br741      Br  0.30181088  0.02619158  0.20317340     0.01100
Br742      Br  0.24742437  0.95649573  0.25633135    -0.02700
Br743      Br  0.21482777  0.00656974  0.22907450    -0.03500
Br744      Br  0.25148129  0.01455284  0.32549828     0.00400
C745        C  0.38267749  0.93528752  0.21310113     0.01800
C746        C  0.38415494  0.91345975  0.21289766     0.04700
C747        C  0.39650883  0.90312372  0.22770844    -0.11400
C748        C  0.40782940  0.91444855  0.24258798     0.24000
C749        C  0.40690969  0.93618308  0.24242476    -0.12000
C750        C  0.39425024  0.94657150  0.22793270     0.05400
C751        C  0.41974272  0.90352875  0.25916400     0.27800
C752        C  0.40990092  0.89848411  0.27794422    -0.12700
C753        C  0.42089697  0.88801898  0.29364838     0.05900
C754        C  0.44189296  0.88227822  0.29067203    -0.08600
C755        C  0.45195426  0.88802319  0.27207973     0.06700
C756        C  0.44085738  0.89848809  0.25637161    -0.13000
Br757      Br  0.42261514  0.95164180  0.26264728    -0.05100
Br758      Br  0.36981191  0.89752143  0.19197628     0.00600
Br759      Br  0.40729028  0.88253106  0.31968010     0.01000
Br760      Br  0.45435365  0.90559981  0.23071773    -0.03400
Br761      Br  0.39156762  0.97620207  0.22973206     0.01100
Br762      Br  0.39762768  0.87333818  0.22802681    -0.02700
Br763      Br  0.38113886  0.90585928  0.28198505    -0.03500
Br764      Br  0.48067581  0.88086282  0.26748675     0.00400
C765        C  0.51426635  0.71072878  0.21923535     0.01800
C766        C  0.52946263  0.72113290  0.23112084     0.04700
C767        C  0.52345172  0.73582232  0.24610529    -0.11400
C768        C  0.50226892  0.74011525  0.24947224     0.24000
C769        C  0.48705171  0.72931672  0.23812105    -0.12000
C770        C  0.49298939  0.71476661  0.22298164     0.05400
C771        C  0.49608865  0.75680084  0.26413811     0.27800
C772        C  0.49284546  0.75243717  0.28524183    -0.12700
C773        C  0.48757561  0.76842984  0.29915955     0.05900
C774        C  0.48568879  0.78899916  0.29204350    -0.08600
C775        C  0.48880766  0.79324599  0.27078546     0.06700
C776        C  0.49390719  0.77719387  0.25692874    -0.13000
Br777      Br  0.45802597  0.73483003  0.24314998    -0.05100
Br778      Br  0.55861429  0.71656497  0.22591949     0.00600
Br779      Br  0.48419314  0.76212541  0.32815429     0.01000
Br780      Br  0.49806471  0.78303558  0.22791591    -0.03400
Br781      Br  0.47172670  0.70022914  0.20771294     0.01100
Br782      Br  0.54422933  0.75073549  0.26162904    -0.02700
Br783      Br  0.49611605  0.72450152  0.29503621    -0.03500
Br784      Br  0.48536118  0.82090495  0.26019967     0.00400
C785        C  0.56180567  0.71182721  0.12429388     0.01800
C786        C  0.58326339  0.70996427  0.12013528     0.04700
C787        C  0.59339815  0.72481563  0.10784999    -0.11400
C788        C  0.58215363  0.74151022  0.09945139     0.24000
C789        C  0.56063312  0.74305627  0.10305570    -0.12000
C790        C  0.55048247  0.72831624  0.11548305     0.05400
C791        C  0.59331989  0.75824833  0.08826170     0.27800
C792        C  0.60148564  0.77503451  0.09950141    -0.12700
C793        C  0.61289901  0.79051826  0.08932886     0.05900
C794        C  0.61695370  0.78894985  0.06783740    -0.08600
C795        C  0.60846350  0.77221328  0.05653536     0.06700
C796        C  0.59633081  0.75716478  0.06667501    -0.13000
Br797      Br  0.54531044  0.76595047  0.09160408    -0.05100
Br798      Br  0.59879868  0.68680203  0.13084981     0.00600
Br799      Br  0.62221647  0.81425363  0.10493763     0.01000
Br800      Br  0.58394894  0.73484916  0.05115918    -0.03400
Br801      Br  0.52138628  0.73174906  0.12172666     0.01100
Br802      Br  0.62290728  0.72278255  0.10303938    -0.02700
Br803      Br  0.59723941  0.77651035  0.12906825    -0.03500
Br804      Br  0.61469402  0.76876519  0.02750924     0.00400
C805        C  0.71615860  0.51544829  0.78817939     0.01800
C806        C  0.71540889  0.52544604  0.76867011     0.04700
C807        C  0.72892289  0.51929296  0.75261649    -0.11400
C808        C  0.74380145  0.50370828  0.75605652     0.24000
C809        C  0.74467623  0.49375597  0.77537740    -0.12000
C810        C  0.73073356  0.49926063  0.79123032     0.05400
C811        C  0.75944653  0.49865614  0.73985572     0.27800
C812        C  0.75754123  0.48058298  0.72778812    -0.12700
C813        C  0.77298182  0.47540178  0.71319919     0.05900
C814        C  0.79044432  0.48837651  0.71049660    -0.08600
C815        C  0.79205187  0.50671062  0.72241757     0.06700
C816        C  0.77671699  0.51167649  0.73711633    -0.13000
Br817      Br  0.76549474  0.47278872  0.78024674    -0.05100
Br818      Br  0.69713221  0.54864237  0.76395458     0.00600
Br819      Br  0.77061013  0.44974626  0.69806128     0.01000
Br820      Br  0.77956758  0.53618660  0.75402447    -0.03400
Br821      Br  0.73159141  0.48370870  0.81673488     0.01100
Br822      Br  0.72749299  0.53248201  0.72585041    -0.02700
Br823      Br  0.73399717  0.46260147  0.73178046    -0.03500
Br824      Br  0.81479343  0.52572151  0.71837901     0.00400
C825        C  0.70955205  0.78758309  0.02688936     0.01800
C826        C  0.70455186  0.76632623  0.02673605     0.04700
C827        C  0.71979824  0.75157365  0.02168016    -0.11400
C828        C  0.74015659  0.75790865  0.01695797     0.24000
C829        C  0.74533578  0.77903047  0.01761255    -0.12000
C830        C  0.73001979  0.79387345  0.02225589     0.05400
C831        C  0.75576319  0.74243136  0.01012671     0.27800
C832        C  0.76720603  0.73105675  0.02480658    -0.12700
C833        C  0.78149986  0.71596876  0.01819719     0.05900
C834        C  0.78434930  0.71214239  0.99683214    -0.08600
C835        C  0.77300842  0.72368154  0.98215831     0.06700
C836        C  0.75874466  0.73877021  0.98881323    -0.13000
Br837      Br  0.77343650  0.78752572  0.01179600    -0.05100
Br838      Br  0.67694238  0.75717265  0.03390516     0.00600
Br839      Br  0.79771274  0.70109846  0.03851143     0.01000
Br840      Br  0.74276068  0.75413681  0.96877204    -0.03400
Br841      Br  0.73678174  0.82284415  0.02045504     0.01100
Br842      Br  0.71282175  0.72259068  0.02091408    -0.02700
Br843      Br  0.76308559  0.73607017  0.05397599    -0.03500
Br844      Br  0.77596455  0.71800239  0.95295784     0.00400
C845        C  0.78531736  0.62082018  0.94714189     0.01800
C846        C  0.76726832  0.61266135  0.95641658     0.04700
C847        C  0.75371980  0.60005878  0.94477113    -0.11400
C848        C  0.75794678  0.59592638  0.92375239     0.24000
C849        C  0.77613279  0.60376202  0.91461344    -0.12000
C850        C  0.78985057  0.61604327  0.92628204     0.05400
C851        C  0.74281629  0.58428164  0.91083965     0.27800
C852        C  0.74351194  0.56256924  0.90994118    -0.12700
C853        C  0.72969063  0.55166160  0.89694124     0.05900
C854        C  0.71537108  0.56252540  0.88435865    -0.08600
C855        C  0.71466934  0.58435264  0.88552693     0.06700
C856        C  0.72829661  0.59512751  0.89872291    -0.13000
Br857      Br  0.78199490  0.59789240  0.88589350    -0.05100
Br858      Br  0.76017506  0.62001251  0.98450665     0.00600
Br859      Br  0.73142641  0.52193753  0.89570263     0.01000
Br860      Br  0.72748844  0.62494327  0.89992712    -0.03400
Br861      Br  0.81516898  0.62587555  0.91368578     0.01100
Br862      Br  0.72907786  0.58878262  0.95735993    -0.02700
Br863      Br  0.76414723  0.54797412  0.92592862    -0.03500
Br864      Br  0.69460030  0.59985286  0.86971731     0.00400
C865        C  0.16289996  0.42915857  0.38412570     0.01800
C866        C  0.14969652  0.41173542  0.38447112     0.04700
C867        C  0.14918094  0.39885976  0.40203386    -0.11400
C868        C  0.16083924  0.40404880  0.41976458     0.24000
C869        C  0.17397951  0.42142173  0.41943507    -0.12000
C870        C  0.17583504  0.43327193  0.40130604     0.05400
C871        C  0.15985916  0.39095415  0.43860138     0.27800
C872        C  0.14395789  0.39392991  0.45328750    -0.12700
C873        C  0.14394958  0.38247938  0.47182069     0.05900
C874        C  0.15973634  0.36782677  0.47560085    -0.08600
C875        C  0.17529483  0.36445560  0.46057596     0.06700
C876        C  0.17532461  0.37598260  0.44213755    -0.13000
Br877      Br  0.18861660  0.42958611  0.44423844    -0.05100
Br878      Br  0.13295695  0.40494392  0.36059713     0.00600
Br879      Br  0.12316688  0.38799373  0.49260731     0.01000
Br880      Br  0.19655792  0.37135068  0.42158258    -0.03400
Br881      Br  0.19607462  0.45515581  0.40027618     0.01100
Br882      Br  0.13258239  0.37406824  0.40198398    -0.02700
Br883      Br  0.12243924  0.41401299  0.44808624    -0.03500
Br884      Br  0.19636405  0.34365221  0.46493369     0.00400
C885        C  0.06693693  0.38261879  0.21454374     0.01800
C886        C  0.08092352  0.37433761  0.22927604     0.04700
C887        C  0.09092205  0.38741885  0.24356694    -0.11400
C888        C  0.08674699  0.40877380  0.24356065     0.24000
C889        C  0.07283003  0.41710056  0.22895551    -0.12000
C890        C  0.06313154  0.40412056  0.21430583     0.05400
C891        C  0.09772887  0.42246634  0.25845219     0.27800
C892        C  0.08811648  0.42852216  0.27709783    -0.12700
C893        C  0.09913695  0.44046031  0.29170528     0.05900
C894        C  0.12022145  0.44528969  0.28824915    -0.08600
C895        C  0.12980206  0.43912034  0.26954265     0.06700
C896        C  0.11829095  0.42852650  0.25436573    -0.13000
Br897      Br  0.06747037  0.44641913  0.22889469    -0.05100
Br898      Br  0.08592619  0.34493363  0.23071174     0.00600
Br899      Br  0.08564812  0.44898837  0.31698617     0.01000
Br900      Br  0.13054592  0.42235086  0.22779264    -0.03400
Br901      Br  0.04589378  0.41615675  0.19304656     0.01100
Br902      Br  0.11052599  0.37612492  0.26320771    -0.02700
Br903      Br  0.06008908  0.41980190  0.28286627    -0.03500
Br904      Br  0.15876796  0.44491543  0.26450105     0.00400
C905        C  0.03574834  0.13397713  0.34765058     0.01800
C906        C  0.04601030  0.12677108  0.32961139     0.04700
C907        C  0.06370930  0.11408209  0.33125757    -0.11400
C908        C  0.07150260  0.10850692  0.35082552     0.24000
C909        C  0.06184370  0.11613876  0.36884477    -0.12000
C910        C  0.04402816  0.12880949  0.36732949     0.05400
C911        C  0.08952995  0.09411383  0.35222348     0.27800
C912        C  0.08616419  0.07260047  0.35270791    -0.12700
C913        C  0.10314111  0.05884165  0.35203917     0.05900
C914        C  0.12360935  0.06655011  0.35108179    -0.08600
C915        C  0.12698106  0.08807452  0.35134670     0.06700
C916        C  0.10999200  0.10180862  0.35167078    -0.13000
Br917      Br  0.07295065  0.10877439  0.39560586    -0.05100
Br918      Br  0.03658279  0.13471527  0.30234126     0.00600
Br919      Br  0.09825780  0.02945348  0.35117659     0.01000
Br920      Br  0.11464578  0.13120055  0.35075130    -0.03400
Br921      Br  0.03052283  0.13786085  0.39243335     0.01100
Br922      Br  0.07739122  0.10403157  0.30661496    -0.02700
Br923      Br  0.05815241  0.06208288  0.35359233    -0.03500
Br924      Br  0.15495514  0.09873910  0.35204187     0.00400
C925        C  0.99483201  0.21161429  0.29054923     0.01800
C926        C  0.98000540  0.22467875  0.28113862     0.04700
C927        C  0.98620431  0.23908233  0.26597509    -0.11400
C928        C  0.00724837  0.24057971  0.26009900     0.24000
C929        C  0.02202820  0.22745388  0.26938850    -0.12000
C930        C  0.01587204  0.21305159  0.28454005     0.05400
C931        C  0.01392413  0.25659339  0.24485953     0.27800
C932        C  0.01583138  0.25172453  0.22364889    -0.12700
C933        C  0.02117009  0.26719586  0.20919188     0.05900
C934        C  0.02471377  0.28772895  0.21589839    -0.08600
C935        C  0.02375079  0.29226595  0.23733440     0.06700
C936        C  0.01826618  0.27681652  0.25166533    -0.13000
Br937      Br  0.05082782  0.22951187  0.26152522    -0.05100
Br938      Br  0.95141147  0.22392224  0.29001839     0.00600
Br939      Br  0.02260293  0.26020576  0.18016199     0.01000
Br940      Br  0.01673179  0.28326342  0.28081927    -0.03400
Br941      Br  0.03631601  0.19490762  0.29667862     0.01100
Br942      Br  0.96597386  0.25724104  0.25354169    -0.02700
Br943      Br  0.01089113  0.22377468  0.21449326    -0.03500
Br944      Br  0.03107252  0.31940415  0.24746374     0.00400
C945        C  0.84122495  0.43032358  0.61513517     0.01800
C946        C  0.82863936  0.43498277  0.59783289     0.04700
C947        C  0.82940255  0.42241091  0.57998958    -0.11400
C948        C  0.84237511  0.40485554  0.57953707     0.24000
C949        C  0.85508764  0.40032909  0.59673743    -0.12000
C950        C  0.85470457  0.41314939  0.61437204     0.05400
C951        C  0.84268801  0.39105839  0.56105732     0.27800
C952        C  0.82682111  0.37635431  0.55811368    -0.12700
C953        C  0.82742342  0.36286333  0.54097388     0.05900
C954        C  0.84409810  0.36379254  0.52678487    -0.08600
C955        C  0.86002010  0.37848767  0.52982778     0.06700
C956        C  0.85916365  0.39221871  0.54676663    -0.13000
Br957      Br  0.87307470  0.37647796  0.59606358    -0.05100
Br958      Br  0.81121923  0.45924976  0.59807051     0.00600
Br959      Br  0.80568641  0.34258449  0.53750489     0.01000
Br960      Br  0.88032217  0.41303734  0.55024597    -0.03400
Br961      Br  0.87235008  0.40681234  0.63770747     0.01100
Br962      Br  0.81318743  0.42950948  0.55586034    -0.02700
Br963      Br  0.80427402  0.37469006  0.57771364    -0.03500
Br964      Br  0.88255820  0.38065187  0.51030162     0.00400
C965        C  0.88344797  0.28017204  0.44195819     0.01800
C966        C  0.88758628  0.28142857  0.42048163     0.04700
C967        C  0.89947666  0.26606174  0.41059486    -0.11400
C968        C  0.90765654  0.24945015  0.42203796     0.24000
C969        C  0.90369012  0.24812656  0.44344672    -0.12000
C970        C  0.89146769  0.26331793  0.45336855     0.05400
C971        C  0.92041019  0.23352182  0.41125679     0.27800
C972        C  0.91061909  0.21722461  0.40056838    -0.12700
C973        C  0.92230871  0.20398851  0.38774474     0.05900
C974        C  0.94401001  0.20669814  0.38582723    -0.08600
C975        C  0.95395415  0.22234310  0.39747822     0.06700
C976        C  0.94213587  0.23580479  0.41000839    -0.13000
Br977      Br  0.91485009  0.22527321  0.45900829    -0.05100
Br978      Br  0.87783210  0.30462847  0.40444958     0.00600
Br979      Br  0.90843738  0.18199389  0.37295292     0.10600
Br980      Br  0.95545572  0.25810786  0.42477606    -0.03400
Br981      Br  0.88464037  0.26011946  0.48226586     0.01100
Br982      Br  0.90464999  0.26765017  0.38117677    -0.02700
Br983      Br  0.88100838  0.21347438  0.40313920    -0.03500
Br984      Br  0.98351506  0.22651377  0.39514280     0.00400
C985        C  0.38109058  0.57536028  0.16568653     0.01800
C986        C  0.40111716  0.56667705  0.16388360     0.04700
C987        C  0.41868746  0.57955174  0.16348085    -0.11400
C988        C  0.41628923  0.60118958  0.16352121     0.24000
C989        C  0.39623230  0.60989285  0.16457860    -0.12000
C990        C  0.37869631  0.59700256  0.16623693     0.05400
C991        C  0.43499084  0.61463670  0.16338196     0.27800
C992        C  0.44245281  0.62298196  0.18210986    -0.12700
C993        C  0.46126610  0.63399916  0.18250770     0.05900
C994        C  0.47250455  0.63731678  0.16398879    -0.08600
C995        C  0.46465546  0.62943334  0.14510661     0.06700
C996        C  0.44603244  0.61799858  0.14486186    -0.13000
Br997      Br  0.39288254  0.63948082  0.16370501    -0.05100
Br998      Br  0.40464329  0.53705868  0.16270280     0.00600
Br999      Br  0.47132339  0.64448426  0.20868819     0.01000
Br1000     Br  0.43584341  0.60635721  0.11925109    -0.03400
Br1001     Br  0.35137526  0.60900238  0.16868306     0.01100
Br1002     Br  0.44615544  0.56756685  0.16370770    -0.02700
Br1003     Br  0.42695301  0.61895375  0.20737275    -0.03500
Br1004     Br  0.48008979  0.63279444  0.11973249     0.00400
C1005       C  0.28489053  0.52258267  0.21952681     0.01800
C1006       C  0.27721754  0.50231495  0.22220135     0.04700
C1007       C  0.26176189  0.49832261  0.23699600    -0.11400
C1008       C  0.25419088  0.51439716  0.24961534     0.24000
C1009       C  0.26223739  0.53450670  0.24749811    -0.12000
C1010       C  0.27739822  0.53867948  0.23234226     0.05400
C1011       C  0.23748272  0.51000708  0.26480985     0.27800
C1012       C  0.21670238  0.50869215  0.25811697    -0.12700
C1013       C  0.20102331  0.50268047  0.27202657     0.05900
C1014       C  0.20616543  0.49772006  0.29278271    -0.08600
C1015       C  0.22687666  0.50005878  0.29963619     0.06700
C1016       C  0.24247555  0.50614014  0.28568239    -0.13000
Br1017     Br  0.25214836  0.55633203  0.26523980    -0.05100
Br1018     Br  0.28840116  0.47959017  0.20627487     0.00600
Br1019     Br  0.17279873  0.50056685  0.26207595     0.01000
Br1020     Br  0.27078857  0.50910099  0.29504977    -0.03400
Br1021     Br  0.28668510  0.56671533  0.22837832     0.01100
Br1022     Br  0.25071840  0.47075791  0.23990473    -0.02700
Br1023     Br  0.20989457  0.51476406  0.22961286    -0.03500
Br1024     Br  0.23391967  0.49608361  0.32844281     0.00400
C1025       C  0.21156056  0.60607041  0.05979262     0.01800
C1026       C  0.21132061  0.60594224  0.08167464     0.04700
C1027       C  0.22593279  0.59420662  0.09271265    -0.11400
C1028       C  0.24049520  0.58200275  0.08202717     0.24000
C1029       C  0.23961740  0.58058645  0.06027335    -0.12000
C1030       C  0.22515362  0.59260287  0.04909954     0.05400
C1031       C  0.25736805  0.57179574  0.09387485     0.27800
C1032       C  0.27597863  0.58260112  0.09767397    -0.12700
C1033       C  0.29069040  0.57466908  0.11168085     0.05900
C1034       C  0.28707359  0.55559617  0.12154528    -0.08600
C1035       C  0.26881700  0.54435960  0.11706009     0.06700
C1036       C  0.25397492  0.55249425  0.10327156    -0.13000
Br1037     Br  0.25878829  0.56267967  0.04595307    -0.05100
Br1038     Br  0.19043209  0.62122914  0.09675781     0.00600
Br1039     Br  0.31574056  0.59007187  0.11738463     0.01000
Br1040     Br  0.22851452  0.53774149  0.09789674    -0.03400
Br1041     Br  0.22488877  0.59119903  0.01926034     0.01100
Br1042     Br  0.22654681  0.59539870  0.12259754    -0.02700
Br1043     Br  0.28096435  0.60861921  0.08404478    -0.03500
Br1044     Br  0.26313445  0.51875336  0.13122643     0.00400
C1045       C  0.33480908  0.86064918  0.02823491     0.01800
C1046       C  0.34782457  0.85506628  0.04504318     0.04700
C1047       C  0.34891371  0.86765873  0.06289331    -0.11400
C1048       C  0.33598202  0.88512197  0.06481412     0.24000
C1049       C  0.32210449  0.89006683  0.04870551    -0.12000
C1050       C  0.32173913  0.87820847  0.03037981     0.05400
C1051       C  0.33687021  0.89844464  0.08368221     0.27800
C1052       C  0.32712187  0.89217059  0.10217228    -0.12700
C1053       C  0.32775434  0.90496322  0.11988149     0.05900
C1054       C  0.33684361  0.92479689  0.11878000    -0.08600
C1055       C  0.34576929  0.93138924  0.09992603     0.06700
C1056       C  0.34652646  0.91794824  0.08277411    -0.13000
Br1057     Br  0.30355667  0.91336480  0.05186837    -0.05100
Br1058     Br  0.36283243  0.82924327  0.04474557     0.00600
Br1059     Br  0.31709555  0.89469048  0.14580573     0.01000
Br1060     Br  0.36069312  0.92632474  0.05784776    -0.03400
Br1061     Br  0.30351371  0.88698771  0.00830036     0.01100
Br1062     Br  0.36846131  0.86126940  0.08465837    -0.02700
Br1063     Br  0.31233325  0.86627838  0.10297760    -0.03500
Br1064     Br  0.35537290  0.95947779  0.09678524     0.00400
C1065       C  0.21425781  0.70366430  0.01337419     0.01800
C1066       C  0.23563438  0.69995090  0.01014331     0.04700
C1067       C  0.24887032  0.71629571  0.00453343    -0.11400
C1068       C  0.24077522  0.73631557  0.00165099     0.24000
C1069       C  0.21943866  0.74001275  0.00469719    -0.12000
C1070       C  0.20624767  0.72381477  0.01081734     0.05400
C1071       C  0.25475294  0.75346351  0.99542525     0.27800
C1072       C  0.26266573  0.76715279  0.01047840    -0.12700
C1073       C  0.27657201  0.78286989  0.00468521     0.05900
C1074       C  0.28316295  0.78456126  0.98391742    -0.08600
C1075       C  0.27473015  0.77125506  0.96876261     0.06700
C1076       C  0.26040482  0.75586883  0.97449184    -0.13000
Br1077     Br  0.20829745  0.76727972  0.00005156    -0.05100
Br1078     Br  0.24710986  0.67268703  0.01429205     0.00600
Br1079     Br  0.28596043  0.80262603  0.02508586     0.01000
Br1080     Br  0.24874805  0.73771935  0.95378744    -0.03400
Br1081     Br  0.17702287  0.72922677  0.01477731     0.01100
Br1082     Br  0.27822579  0.71138283  0.00100869    -0.02700
Br1083     Br  0.25481832  0.76395992  0.03912910    -0.03500
Br1084     Br  0.28369408  0.77321285  0.94036251     0.00400
C1085       C  0.53233139  0.63855154  0.84273238     0.01800
C1086       C  0.54062421  0.63142109  0.82367627     0.04700
C1087       C  0.55959296  0.62063848  0.82331769    -0.11400
C1088       C  0.57024516  0.61655109  0.84188979     0.24000
C1089       C  0.56245029  0.62414460  0.86078531    -0.12000
C1090       C  0.54358698  0.63517617  0.86125385     0.05400
C1091       C  0.58855345  0.60261152  0.84166334     0.27800
C1092       C  0.58558348  0.58123744  0.84417176    -0.12700
C1093       C  0.60260731  0.56767458  0.84317030     0.05900
C1094       C  0.62281094  0.57539383  0.83971330    -0.08600
C1095       C  0.62574812  0.59687403  0.83718304     0.06700
C1096       C  0.60864249  0.61044798  0.83824856    -0.13000
Br1097     Br  0.57745463  0.61876293  0.88609109    -0.05100
Br1098     Br  0.52647065  0.63647083  0.79772502     0.00600
Br1099     Br  0.59786796  0.53835726  0.84538925     0.01000
Br1100     Br  0.61256248  0.63982644  0.83522754    -0.03400
Br1101     Br  0.53266578  0.64416404  0.88760656     0.01100
Br1102     Br  0.57101680  0.61106423  0.79736527    -0.02700
Br1103     Br  0.55798176  0.57058629  0.84883780    -0.03500
Br1104     Br  0.65316808  0.60795877  0.83305037     0.00400
C1105       C  0.44331646  0.71459919  0.88254132     0.01800
C1106       C  0.43716008  0.73385671  0.87428834     0.04700
C1107       C  0.42517768  0.74761681  0.88623696    -0.11400
C1108       C  0.41993039  0.74264264  0.90681636     0.24000
C1109       C  0.42722633  0.72403753  0.91552668    -0.12000
C1110       C  0.43854891  0.70986169  0.90334118     0.05400
C1111       C  0.40569266  0.75632320  0.91884073     0.27800
C1112       C  0.41317845  0.77441357  0.92845899    -0.12700
C1113       C  0.39942770  0.78769380  0.93907958     0.05900
C1114       C  0.37810918  0.78272838  0.94059673    -0.08600
C1115       C  0.37075979  0.76428729  0.93134524     0.06700
C1116       C  0.38446451  0.75126803  0.92039070    -0.13000
Br1117     Br  0.42118217  0.71788377  0.94410423    -0.05100
Br1118     Br  0.44570959  0.74178653  0.84673470     0.00600
Br1119     Br  0.40969173  0.81341243  0.95022244     0.01000
Br1120     Br  0.37419135  0.72643395  0.90726239    -0.03400
Br1121     Br  0.44597164  0.68336787  0.91481441     0.01100
Br1122     Br  0.41538208  0.77304258  0.87413257    -0.02700
Br1123     Br  0.44234290  0.78098903  0.92693331    -0.03500
Br1124     Br  0.34205832  0.75621325  0.93423562     0.00400
C1125       C  0.71228046  0.21543690  0.51448166     0.01800
C1126       C  0.71423303  0.22094138  0.49340864     0.04700
C1127       C  0.72949311  0.23517737  0.48724441    -0.11400
C1128       C  0.74258830  0.24428042  0.50213415     0.24000
C1129       C  0.74034900  0.23925569  0.52321625    -0.12000
C1130       C  0.72516047  0.22494863  0.52942170     0.05400
C1131       C  0.75912897  0.25874648  0.49561022     0.27800
C1132       C  0.77894774  0.25108513  0.49055136    -0.12700
C1133       C  0.79494779  0.26480020  0.48520560     0.05900
C1134       C  0.79116662  0.28627310  0.48490267    -0.08600
C1135       C  0.77120896  0.29392020  0.48966695     0.06700
C1136       C  0.75517968  0.28012901  0.49489119    -0.13000
Br1137     Br  0.75892312  0.25125492  0.54340393    -0.05100
Br1138     Br  0.69556821  0.20961923  0.47295613     0.00600
Br1139     Br  0.82186704  0.25399578  0.47760229     0.01000
Br1140     Br  0.72777751  0.29039379  0.50121488    -0.03400
Br1141     Br  0.72306009  0.21750015  0.55825840     0.01100
Br1142     Br  0.73313184  0.24169978  0.45831573    -0.02700
Br1143     Br  0.78407187  0.22172114  0.49090902    -0.03500
Br1144     Br  0.76608308  0.32328427  0.49035815     0.00400
C1145       C  0.97528263  0.13929376  0.65759669     0.01800
C1146       C  0.96477367  0.13630747  0.67663350     0.04700
C1147       C  0.94615671  0.12495816  0.67727625    -0.11400
C1148       C  0.93756505  0.11680065  0.65897817     0.24000
C1149       C  0.94724693  0.12075422  0.63981900    -0.12000
C1150       C  0.96611481  0.13186108  0.63910561     0.05400
C1151       C  0.91904542  0.10307709  0.66021345     0.27800
C1152       C  0.92180926  0.08157898  0.66225642    -0.12700
C1153       C  0.90447123  0.06848900  0.66410656     0.05900
C1154       C  0.88425481  0.07686320  0.66468937    -0.08600
C1155       C  0.88148033  0.09841963  0.66316573     0.06700
C1156       C  0.89883018  0.11147030  0.66065529    -0.13000
Br1157     Br  0.93468550  0.11057702  0.61464951    -0.05100
Br1158     Br  0.97522846  0.14836781  0.70198198     0.00600
Br1159     Br  0.90849122  0.03906544  0.66670098     0.01000
Br1160     Br  0.89505142  0.14087668  0.65795500    -0.03400
Br1161     Br  0.97982026  0.13562299  0.61282684     0.01100
Br1162     Br  0.93243770  0.12013510  0.70339088    -0.02700
Br1163     Br  0.94948342  0.07017141  0.66330439    -0.03500
Br1164     Br  0.85388329  0.11000473  0.66391542     0.00400
C1165       C  0.72127029  0.12365563  0.55993178     0.01800
C1166       C  0.71787482  0.10224963  0.56253200     0.04700
C1167       C  0.73271843  0.09002196  0.57287856    -0.11400
C1168       C  0.75051261  0.09918430  0.58164396     0.24000
C1169       C  0.75425732  0.12039129  0.57865038    -0.12000
C1170       C  0.73987331  0.13254025  0.56756139     0.05400
C1171       C  0.76401003  0.08693330  0.59578343     0.27800
C1172       C  0.75822123  0.08467708  0.61668204    -0.12700
C1173       C  0.77047569  0.07277311  0.63022103     0.05900
C1174       C  0.78899053  0.06343032  0.62310039    -0.08600
C1175       C  0.79475330  0.06566833  0.60210589     0.06700
C1176       C  0.78222929  0.07731892  0.58848649    -0.13000
Br1177     Br  0.77888420  0.13283602  0.59032135    -0.05100
Br1178     Br  0.69200751  0.08982359  0.55397853     0.00600
Br1179     Br  0.76123803  0.06865894  0.65834390     0.01000
Br1180     Br  0.79017823  0.08057473  0.55990860    -0.03400
Br1181     Br  0.74606530  0.16128624  0.56259543     0.01100
Br1182     Br  0.72854927  0.06066018  0.57566320    -0.02700
Br1183     Br  0.73356733  0.09836315  0.62680869    -0.03500
Br1184     Br  0.82044173  0.05393905  0.59216645     0.00400
C1185       C  0.52813748  0.78339781  0.71566073     0.01800
C1186       C  0.52513178  0.76308093  0.70822412     0.04700
C1187       C  0.51926603  0.74724143  0.72197491    -0.11400
C1188       C  0.51592991  0.75172940  0.74306381     0.24000
C1189       C  0.51950204  0.77185190  0.75059549    -0.12000
C1190       C  0.52581362  0.78757911  0.73700862     0.05400
C1191       C  0.50791584  0.73565359  0.75736791     0.27800
C1192       C  0.48635181  0.73365197  0.76046996    -0.12700
C1193       C  0.47869936  0.72041459  0.77597046     0.05900
C1194       C  0.49262504  0.70901065  0.78838335    -0.08600
C1195       C  0.51423093  0.71051624  0.78473213     0.06700
C1196       C  0.52180221  0.72361781  0.76909956    -0.13000
Br1197     Br  0.51535709  0.77789059  0.77959155    -0.05100
Br1198     Br  0.52757818  0.75712820  0.67904360     0.00600
Br1199     Br  0.44926165  0.71938933  0.78132228     0.01000
Br1200     Br  0.55122358  0.72526818  0.76371261    -0.03400
Br1201     Br  0.53200643  0.81471150  0.74790352     0.01100
Br1202     Br  0.51541743  0.71941329  0.71201328    -0.02700
Br1203     Br  0.46739402  0.74954865  0.74369179    -0.03500
Br1204     Br  0.53364938  0.69464628  0.80107514     0.00400
C1205       C  0.66196351  0.92613767  0.88710494     0.01800
C1206       C  0.67380704  0.90767985  0.88768206     0.04700
C1207       C  0.67322026  0.89478491  0.90530291    -0.11400
C1208       C  0.66037186  0.89980115  0.92223751     0.24000
C1209       C  0.64806207  0.91776513  0.92144793    -0.12000
C1210       C  0.64919292  0.93112693  0.90428046     0.05400
C1211       C  0.66102090  0.88732005  0.94167101     0.27800
C1212       C  0.64922574  0.86909799  0.94364668    -0.12700
C1213       C  0.64947108  0.85788308  0.96238910     0.05900
C1214       C  0.66055208  0.86546108  0.97976773    -0.08600
C1215       C  0.67236376  0.88379847  0.97766996     0.06700
C1216       C  0.67295250  0.89432045  0.95859005    -0.13000
Br1217     Br  0.62997056  0.92427157  0.94438962    -0.05100
Br1218     Br  0.69056977  0.89949833  0.86428576     0.00600
Br1219     Br  0.63585014  0.83136273  0.96355888     0.01000
Br1220     Br  0.69006906  0.91860809  0.95549147    -0.03400
Br1221     Br  0.63459964  0.95719502  0.90562795     0.01100
Br1222     Br  0.69047445  0.87044506  0.90660080    -0.02700
Br1223     Br  0.63244579  0.85972324  0.92071946    -0.03500
Br1224     Br  0.68699006  0.89551329  0.00104977     0.00400
C1225       C  0.78970415  0.01929215  0.71882193     0.01800
C1226       C  0.79675271  0.01869743  0.73961168     0.04700
C1227       C  0.78323100  0.01239769  0.75557297    -0.11400
C1228       C  0.76254865  0.00697728  0.75098250     0.24000
C1229       C  0.75535124  0.00795794  0.73041794    -0.12000
C1230       C  0.76883690  0.01392330  0.71438114     0.05400
C1231       C  0.74815355  0.00021453  0.76764663     0.27800
C1232       C  0.74425619  0.97902171  0.77070102    -0.12700
C1233       C  0.72907617  0.97261665  0.78501244     0.05900
C1234       C  0.71748104  0.98743627  0.79617552    -0.08600
C1235       C  0.72188353  0.00867509  0.79351231     0.06700
C1236       C  0.73721515  0.01499836  0.77935810    -0.13000
Br1237     Br  0.72676820  0.00113415  0.72433887    -0.05100
Br1238     Br  0.82517184  0.02539512  0.74641881     0.00600
Br1239     Br  0.72321369  0.94355657  0.78801023     0.01000
Br1240     Br  0.74283463  0.04400764  0.77541269    -0.03400
Br1241     Br  0.75807611  0.01539971  0.68647611     0.01100
Br1242     Br  0.79301268  0.01075630  0.78379513    -0.02700
Br1243     Br  0.75912180  0.95884053  0.75442666    -0.03500
Br1244     Br  0.70718988  0.02933152  0.80939406     0.00400
C1245       C  0.62216347  0.94096268  0.79148848     0.01800
C1246       C  0.61903529  0.91946074  0.79348097     0.04700
C1247       C  0.60682452  0.90871834  0.77893443    -0.11400
C1248       C  0.59798585  0.91921887  0.76200748     0.24000
C1249       C  0.60067718  0.94074228  0.76015419    -0.12000
C1250       C  0.61256792  0.95165465  0.77497276     0.05400
C1251       C  0.58696892  0.90720488  0.74564898     0.27800
C1252       C  0.59840372  0.89842203  0.72927481    -0.12700
C1253       C  0.58862769  0.88520736  0.71492407     0.05900
C1254       C  0.56720842  0.88074189  0.71674999    -0.08600
C1255       C  0.55562882  0.89004567  0.73285871     0.06700
C1256       C  0.56554352  0.90313578  0.74732052    -0.13000
Br1257     Br  0.58861445  0.95501192  0.73685742    -0.05100
Br1258     Br  0.63121202  0.90455716  0.81636751     0.00600
Br1259     Br  0.60476183  0.87354824  0.69255335     0.01000
Br1260     Br  0.55012011  0.91477197  0.77012007    -0.03400
Br1261     Br  0.61676609  0.98096445  0.77176561     0.01100
Br1262     Br  0.60238239  0.87939720  0.78191476    -0.02700
Br1263     Br  0.62774748  0.90406215  0.72698454    -0.03500
Br1264     Br  0.52654839  0.88373628  0.73621800     0.00400
C1265       C  0.86006979  0.65826235  0.03779990     0.01800
C1266       C  0.87750306  0.67111321  0.04146904     0.04700
C1267       C  0.88868353  0.66946983  0.06012512    -0.11400
C1268       C  0.88311145  0.65455631  0.07491946     0.24000
C1269       C  0.86559926  0.64198164  0.07154327    -0.12000
C1270       C  0.85383168  0.64411521  0.05324579     0.05400
C1271       C  0.89651511  0.65166691  0.09344039     0.27800
C1272       C  0.91466638  0.63966674  0.09180455    -0.12700
C1273       C  0.92924276  0.63939460  0.10809009     0.05900
C1274       C  0.92575805  0.65130100  0.12619942    -0.08600
C1275       C  0.90680937  0.66225385  0.12826421     0.06700
C1276       C  0.89230510  0.66246109  0.11189008    -0.13000
Br1277     Br  0.85795609  0.62167344  0.09193425    -0.05100
Br1278     Br  0.88723878  0.69024269  0.02069824     0.00600
Br1279     Br  0.95444225  0.62360738  0.10454776     0.01000
Br1280     Br  0.86682234  0.67798058  0.11435557    -0.03400
Br1281     Br  0.82849763  0.62845746  0.05010407     0.01100
Br1282     Br  0.91203140  0.68746765  0.06547365    -0.02700
Br1283     Br  0.91983604  0.62431491  0.06663786    -0.03500
Br1284     Br  0.90011917  0.67649147  0.15370755     0.00400
C1285       C  0.03093387  0.65673380  0.13752832     0.01800
C1286       C  0.05058038  0.65730494  0.14731775     0.04700
C1287       C  0.06887234  0.65850756  0.13537975    -0.11400
C1288       C  0.06770381  0.65882929  0.11358953     0.24000
C1289       C  0.04813533  0.65866398  0.10379040    -0.12000
C1290       C  0.02982442  0.65785682  0.11568809     0.05400
C1291       C  0.08700052  0.65854567  0.10088157     0.27800
C1292       C  0.09460756  0.67684194  0.09188961    -0.12700
C1293       C  0.11168253  0.67613545  0.07824974     0.05900
C1294       C  0.12218048  0.65723890  0.07466116    -0.08600
C1295       C  0.11524031  0.63917414  0.08475100     0.06700
C1296       C  0.09731517  0.63970977  0.09717694    -0.13000
Br1297     Br  0.04653006  0.65923870  0.07393125    -0.05100
Br1298     Br  0.05254110  0.65763934  0.17710970     0.00600
Br1299     Br  0.11933405  0.70078915  0.06331799     0.01000
Br1300     Br  0.08643421  0.61446771  0.10866633    -0.03400
Br1301     Br  0.00326149  0.65764981  0.10181366     0.01100
Br1302     Br  0.09565233  0.66006684  0.14876299    -0.02700
Br1303     Br  0.08142622  0.70286242  0.09821470    -0.03500
Br1304     Br  0.13073579  0.61368675  0.08255985     0.00400
C1305       C  0.84532872  0.47154274  0.36932924     0.01800
C1306       C  0.86456694  0.46143367  0.37269383     0.04700
C1307       C  0.86525049  0.44250183  0.38341386    -0.11400
C1308       C  0.84686762  0.43365567  0.39107158     0.24000
C1309       C  0.82767774  0.44341996  0.38754027    -0.12000
C1310       C  0.82681568  0.46217906  0.37659470     0.05400
C1311       C  0.84763231  0.41466984  0.40389422     0.27800
C1312       C  0.84551796  0.39504497  0.39464058    -0.12700
C1313       C  0.84441480  0.37725402  0.40709866     0.05900
C1314       C  0.84567460  0.37905555  0.42881863    -0.08600
C1315       C  0.84800131  0.39868906  0.43803474     0.06700
C1316       C  0.84908800  0.41643000  0.42559076    -0.13000
Br1317     Br  0.80256395  0.43100159  0.39813079    -0.05100
Br1318     Br  0.89034099  0.47388463  0.36399698     0.00600
Br1319     Br  0.84152041  0.35041840  0.39442144     0.01000
Br1320     Br  0.85219134  0.44329648  0.43822364    -0.03400
Br1321     Br  0.79991434  0.47425043  0.37106896     0.01100
Br1322     Br  0.89142220  0.42874305  0.38814627    -0.02700
Br1323     Br  0.84410159  0.39265358  0.36491213    -0.03500
Br1324     Br  0.84819892  0.40149764  0.46780715     0.00400
C1325       C  0.88463861  0.55941239  0.29311621     0.01800
C1326       C  0.89700955  0.54722010  0.27973064     0.04700
C1327       C  0.91008226  0.55670686  0.26500711    -0.11400
C1328       C  0.91082420  0.57839425  0.26340780     0.24000
C1329       C  0.89849182  0.59057576  0.27666905    -0.12000
C1330       C  0.88551514  0.58119202  0.29147172     0.05400
C1331       C  0.92373685  0.58852986  0.24716320     0.27800
C1332       C  0.94398578  0.59553098  0.25175945    -0.12700
C1333       C  0.95528220  0.60698416  0.23698360     0.05900
C1334       C  0.94638318  0.61141108  0.21750189    -0.08600
C1335       C  0.92655497  0.60349603  0.21258499     0.06700
C1336       C  0.91523164  0.59223998  0.22739204    -0.13000
Br1337     Br  0.89914665  0.62027644  0.27417928    -0.05100
Br1338     Br  0.89501005  0.51749234  0.28032508     0.00600
Br1339     Br  0.98228071  0.61785161  0.24399730     0.01000
Br1340     Br  0.88764395  0.58255752  0.22092359    -0.03400
Br1341     Br  0.86942343  0.59850678  0.30980731     0.01100
Br1342     Br  0.92663860  0.54007879  0.24650806    -0.02700
Br1343     Br  0.95580743  0.59010237  0.27865686    -0.03500
Br1344     Br  0.91496434  0.60790009  0.18534099     0.00400
C1345       C  0.07662831  0.87955816  0.33908751     0.01800
C1346       C  0.09800156  0.87510711  0.34103427     0.04700
C1347       C  0.11249417  0.89128684  0.34332647    -0.11400
C1348       C  0.10575014  0.91200170  0.34326653     0.24000
C1349       C  0.08440496  0.91645186  0.34120395    -0.12000
C1350       C  0.06988998  0.90028982  0.33917386     0.05400
C1351       C  0.12104985  0.92920101  0.34486066     0.27800
C1352       C  0.12601035  0.93790317  0.36426802    -0.12700
C1353       C  0.13861081  0.95570474  0.36549982     0.05900
C1354       C  0.14702578  0.96443536  0.34726778    -0.08600
C1355       C  0.14376041  0.95425133  0.32810739     0.06700
C1356       C  0.13019723  0.93724196  0.32682403    -0.13000
Br1357     Br  0.07511034  0.94478674  0.34133054    -0.05100
Br1358     Br  0.10734747  0.84680721  0.34142509     0.00600
Br1359     Br  0.14317271  0.96846628  0.39215294     0.01000
Br1360     Br  0.12347748  0.92531865  0.30022201    -0.03400
Br1361     Br  0.04077047  0.90655848  0.33582349     0.01100
Br1362     Br  0.14156536  0.88520303  0.34717776    -0.02700
Br1363     Br  0.11507993  0.92552686  0.38910117    -0.03500
Br1364     Br  0.15893431  0.96254979  0.30371468     0.00400
C1365       C  0.01503492  0.78502270  0.28934757     0.01800
C1366       C  0.01025114  0.79096133  0.26884026     0.04700
C1367       C  0.00298168  0.77616980  0.25448302    -0.11400
C1368       C  0.00091727  0.75532821  0.26035834     0.24000
C1369       C  0.00572764  0.74935387  0.28074897    -0.12000
C1370       C  0.01288087  0.76407422  0.29515212     0.05400
C1371       C  0.99529261  0.73937393  0.24472293     0.27800
C1372       C  0.97464597  0.73238246  0.24273418    -0.12700
C1373       C  0.96975719  0.71655531  0.22849023     0.05900
C1374       C  0.98549028  0.70785883  0.21600335    -0.08600
C1375       C  0.00605964  0.71517941  0.21779346     0.06700
C1376       C  0.01096818  0.73067400  0.23227501    -0.13000
Br1377     Br  0.00242998  0.72086648  0.28888372    -0.05100
Br1378     Br  0.01294116  0.81938964  0.26043082     0.00600
Br1379     Br  0.94182564  0.70583088  0.22718516     0.01000
Br1380     Br  0.03937722  0.73961491  0.23559864    -0.03400
Br1381     Br  0.02089938  0.75506692  0.32251948     0.01100
Br1382     Br  0.99530074  0.78436868  0.22680274    -0.02700
Br1383     Br  0.95327064  0.74409319  0.26003717    -0.03500
Br1384     Br  0.02755299  0.70453292  0.19992518     0.00400
C1385       C  0.15226699  0.62090942  0.43729478     0.01800
C1386       C  0.16723837  0.61770767  0.42150198     0.04700
C1387       C  0.16642579  0.59988739  0.40893749    -0.11400
C1388       C  0.15035585  0.58541212  0.41146534     0.24000
C1389       C  0.13506045  0.58872052  0.42660030    -0.12000
C1390       C  0.13605827  0.60616104  0.43968101     0.05400
C1391       C  0.14999413  0.56623514  0.39873179     0.27800
C1392       C  0.13848897  0.56539767  0.38016759    -0.12700
C1393       C  0.13844826  0.54724570  0.36802041     0.05900
C1394       C  0.15012434  0.52984688  0.37434988    -0.08600
C1395       C  0.16101627  0.53059609  0.39339640     0.06700
C1396       C  0.16101124  0.54871876  0.40544393    -0.13000
Br1397     Br  0.11285470  0.56887097  0.42948435    -0.05100
Br1398     Br  0.18860047  0.63790511  0.41593874     0.00600
Br1399     Br  0.12309968  0.54681783  0.34233658     0.01000
Br1400     Br  0.17617720  0.54967588  0.43126778    -0.03400
Br1401     Br  0.11561089  0.60857826  0.46143055     0.01100
Br1402     Br  0.18747456  0.59500755  0.38822524    -0.02700
Br1403     Br  0.12309670  0.58939404  0.37134972    -0.03500
Br1404     Br  0.17519019  0.50651466  0.40380753     0.00400
C1405       C  0.11472109  0.71679919  0.44694320     0.01800
C1406       C  0.09414297  0.71087325  0.44204868     0.04700
C1407       C  0.08147460  0.72385129  0.42982457    -0.11400
C1408       C  0.08908580  0.74301575  0.42292014     0.24000
C1409       C  0.10943353  0.74908898  0.42803083    -0.12000
C1410       C  0.12229772  0.73591944  0.43965991     0.05400
C1411       C  0.07648961  0.75634628  0.40901472     0.27800
C1412       C  0.07940376  0.75500829  0.38747302    -0.12700
C1413       C  0.07006029  0.76952665  0.37424779     0.05900
C1414       C  0.05737205  0.78539867  0.38248585    -0.08600
C1415       C  0.05361438  0.78606391  0.40406690     0.06700
C1416       C  0.06322086  0.77157131  0.41726697    -0.13000
Br1417     Br  0.11981693  0.77540167  0.41850150    -0.05100
Br1418     Br  0.08376133  0.68429126  0.45056709     0.00600
Br1419     Br  0.07456231  0.76710494  0.34475150     0.01000
Br1420     Br  0.05876697  0.77278030  0.44677989    -0.03400
Br1421     Br  0.15035377  0.74435125  0.44540919     0.01100
Br1422     Br  0.05406185  0.71509050  0.42153663    -0.02700
Br1423     Br  0.09656321  0.73327461  0.37618483    -0.03500
Br1424     Br  0.03659159  0.80758280  0.41595709     0.00400
C1425       C  0.14866884  0.03219388  0.65741272     0.01800
C1426       C  0.14237796  0.04145858  0.67631350     0.04700
C1427       C  0.13010067  0.05947378  0.67623660    -0.11400
C1428       C  0.12437865  0.06875317  0.65738224     0.24000
C1429       C  0.13182570  0.06049623  0.63860410    -0.12000
C1430       C  0.14364279  0.04211834  0.63853001     0.05400
C1431       C  0.10955587  0.08645178  0.65734464     0.27800
C1432       C  0.08828561  0.08289521  0.65350060    -0.12700
C1433       C  0.07402549  0.09939366  0.65408510     0.05900
C1434       C  0.08080568  0.11946095  0.65935313    -0.08600
C1435       C  0.10207670  0.12298098  0.66339340     0.06700
C1436       C  0.11645878  0.10660923  0.66191104    -0.13000
Br1437     Br  0.12558253  0.07447685  0.61297755    -0.05100
Br1438     Br  0.15102106  0.03013783  0.70262874     0.00600
Br1439     Br  0.04500048  0.09422232  0.64851956     0.01000
Br1440     Br  0.14570972  0.11173069  0.66582036    -0.03400
Br1441     Br  0.15145693  0.03004942  0.61232320     0.01100
Br1442     Br  0.12077327  0.07141452  0.70204469    -0.02700
Br1443     Br  0.07863010  0.05522124  0.64791333    -0.03500
Br1444     Br  0.11171227  0.15033018  0.67035575     0.00400
C1445       C  0.38974626  0.82844444  0.57947622     0.01800
C1446       C  0.39672727  0.84754444  0.58757892     0.04700
C1447       C  0.41566009  0.84868235  0.59841282    -0.11400
C1448       C  0.42712187  0.83062894  0.60241073     0.24000
C1449       C  0.41999845  0.81146038  0.59491492    -0.12000
C1450       C  0.40153803  0.81036464  0.58319686     0.05400
C1451       C  0.44637781  0.83182269  0.61503284     0.27800
C1452       C  0.46585056  0.83379126  0.60533008    -0.12700
C1453       C  0.48403597  0.83507376  0.61738411     0.05900
C1454       C  0.48276431  0.83471025  0.63919403    -0.08600
C1455       C  0.46325674  0.83307110  0.64889544     0.06700
C1456       C  0.44510978  0.83144565  0.63681896    -0.13000
Br1457     Br  0.43585894  0.78678313  0.60052122    -0.05100
Br1458     Br  0.37982747  0.87209250  0.58525300     0.00600
Br1459     Br  0.51067856  0.83807335  0.60402077     0.01000
Br1460     Br  0.41843864  0.82838628  0.65001499    -0.03400
Br1461     Br  0.39329172  0.78416913  0.57145066     0.01100
Br1462     Br  0.42629319  0.87507348  0.60746487    -0.02700
Br1463     Br  0.46749647  0.83491613  0.57552545    -0.03500
Br1464     Br  0.46146057  0.83217175  0.67869691     0.00400
C1465       C  0.43280378  0.83789537  0.39032235     0.01800
C1466       C  0.42190840  0.85559843  0.39736098     0.04700
C1467       C  0.40958508  0.85460612  0.41536972    -0.11400
C1468       C  0.40762162  0.83592228  0.42626411     0.24000
C1469       C  0.41876178  0.81839516  0.41964829    -0.12000
C1470       C  0.43143304  0.81937851  0.40188122     0.05400
C1471       C  0.39436945  0.83491033  0.44511444     0.27800
C1472       C  0.40323274  0.83837624  0.46477692    -0.12700
C1473       C  0.39091848  0.83696629  0.48268969     0.05900
C1474       C  0.36955939  0.83244550  0.48103699    -0.08600
C1475       C  0.36049922  0.82961324  0.46134241     0.06700
C1476       C  0.37292533  0.83070696  0.44340977    -0.13000
Br1477     Br  0.41705490  0.79317993  0.43545370    -0.05100
Br1478     Br  0.42297335  0.88121011  0.38217617     0.00600
Br1479     Br  0.40317473  0.84205239  0.50954099     0.01000
Br1480     Br  0.36066458  0.82643635  0.41647025    -0.03400
Br1481     Br  0.44803779  0.79562653  0.39451578     0.01100
Br1482     Br  0.39567171  0.87897512  0.42565880    -0.02700
Br1483     Br  0.43222918  0.84546158  0.46705678    -0.03500
Br1484     Br  0.33125177  0.82354996  0.45899866     0.00400
C1485       C  0.21170607  0.70975228  0.49623012     0.01800
C1486       C  0.21285362  0.73139626  0.49417900     0.04700
C1487       C  0.23071947  0.74209189  0.50065700    -0.11400
C1488       C  0.24735183  0.73136550  0.50988769     0.24000
C1489       C  0.24606813  0.70981981  0.51256928    -0.12000
C1490       C  0.22834546  0.69899743  0.50561495     0.05400
C1491       C  0.26585810  0.74322474  0.51687267     0.27800
C1492       C  0.28158632  0.74812578  0.50257362    -0.12700
C1493       C  0.29646571  0.76330897  0.50747885     0.05900
C1494       C  0.29590121  0.77336107  0.52689235    -0.08600
C1495       C  0.28110865  0.76729497  0.54176926     0.06700
C1496       C  0.26610841  0.75226482  0.53674500    -0.13000
Br1497     Br  0.26837797  0.69534324  0.52620781    -0.05100
Br1498     Br  0.19010861  0.74662241  0.48239335     0.00600
Br1499     Br  0.31745820  0.77050415  0.48746986     0.01000
Br1500     Br  0.24505979  0.74488404  0.55659404    -0.03400
Br1501     Br  0.22624799  0.66964290  0.51030871     0.01100
Br1502     Br  0.23249731  0.77164692  0.49697839    -0.02700
Br1503     Br  0.28204980  0.73459459  0.47593010    -0.03500
Br1504     Br  0.28003184  0.78101053  0.56830908     0.00400
C1505       C  0.29502875  0.87538313  0.56522543     0.01800
C1506       C  0.27991386  0.88540375  0.55289693     0.04700
C1507       C  0.26612973  0.89979291  0.56189626    -0.11400
C1508       C  0.26721286  0.90416095  0.58325964     0.24000
C1509       C  0.28279185  0.89483898  0.59540757    -0.12000
C1510       C  0.29666600  0.88053942  0.58646669     0.05400
C1511       C  0.25089685  0.91697697  0.59344506     0.27800
C1512       C  0.25400668  0.93822583  0.59709150    -0.12700
C1513       C  0.23919825  0.94974133  0.60839190     0.05900
C1514       C  0.22128371  0.93996945  0.61634437    -0.08600
C1515       C  0.21794102  0.91882061  0.61201403     0.06700
C1516       C  0.23266811  0.90741321  0.60064847    -0.13000
Br1517     Br  0.28474008  0.90147684  0.62451186    -0.05100
Br1518     Br  0.27690439  0.87839046  0.52397313     0.00600
Br1519     Br  0.24435193  0.97852124  0.61420647     0.01000
Br1520     Br  0.22834169  0.87832253  0.59555116    -0.03400
Br1521     Br  0.31825799  0.86854526  0.60339850     0.01100
Br1522     Br  0.24529133  0.91318082  0.54514718    -0.02700
Br1523     Br  0.27911587  0.95120251  0.58744186    -0.03500
Br1524     Br  0.19297205  0.90532705  0.62125148     0.00400
C1525       C  0.34706641  0.96787536  0.86268546     0.01800
C1526       C  0.32842535  0.95631394  0.86330435     0.04700
C1527       C  0.32728794  0.93806480  0.87505216    -0.11400
C1528       C  0.34495305  0.93066877  0.88553977     0.24000
C1529       C  0.36396851  0.94129752  0.88372771    -0.12000
C1530       C  0.36503196  0.95993522  0.87247524     0.05400
C1531       C  0.34306597  0.91260275  0.89965301     0.27800
C1532       C  0.33915339  0.91590136  0.92086587    -0.12700
C1533       C  0.33706301  0.89899257  0.93436254     0.05900
C1534       C  0.33829611  0.87862832  0.92667346    -0.08600
C1535       C  0.34212932  0.87530407  0.90542394     0.06700
C1536       C  0.34454179  0.89225771  0.89194589    -0.13000
Br1537     Br  0.38834084  0.93062161  0.89744552    -0.05100
Br1538     Br  0.30447847  0.96487842  0.84740015     0.00600
Br1539     Br  0.33214762  0.90381800  0.96337330     0.01000
Br1540     Br  0.34983444  0.88773357  0.86291701    -0.03400
Br1541     Br  0.39081738  0.97508625  0.87181445     0.01100
Br1542     Br  0.30123219  0.92358251  0.87765053    -0.02700
Br1543     Br  0.33618060  0.94371670  0.93128562    -0.03500
Br1544     Br  0.34512254  0.84751659  0.89502232     0.00400
C1545       C  0.29359794  0.01677265  0.79097004     0.01800
C1546       C  0.27298120  0.01325930  0.79755820     0.04700
C1547       C  0.25761009  0.00752718  0.78304882    -0.11400
C1548       C  0.26279968  0.00515334  0.76199050     0.24000
C1549       C  0.28331885  0.00873554  0.75541582    -0.12000
C1550       C  0.29858569  0.01484244  0.76975630     0.05400
C1551       C  0.24687155  0.99896446  0.74648552     0.27800
C1552       C  0.24391829  0.97795375  0.74165369    -0.12700
C1553       C  0.23085362  0.97218608  0.72507778     0.05900
C1554       C  0.22072279  0.98747314  0.71316070    -0.08600
C1555       C  0.22362370  0.00855586  0.71821144     0.06700
C1556       C  0.23624919  0.01420089  0.73512676    -0.13000
Br1557     Br  0.29057997  0.00472801  0.72668577    -0.05100
Br1558     Br  0.26591310  0.01510854  0.82653252     0.00600
Br1559     Br  0.22850648  0.94341829  0.71762355     0.01000
Br1560     Br  0.23906891  0.04285869  0.74293647    -0.03400
Br1561     Br  0.32612950  0.02151795  0.75998011     0.01100
Br1562     Br  0.22953357  0.00232638  0.79195202    -0.02700
Br1563     Br  0.25829003  0.95719017  0.75758926    -0.03500
Br1564     Br  0.21053736  0.02996651  0.70200600     0.00400
C1565       C  0.36696401  0.16249557  0.53084444     0.01800
C1566       C  0.37541052  0.14357993  0.53777311     0.04700
C1567       C  0.38757805  0.14300786  0.55591783    -0.11400
C1568       C  0.39150522  0.16130116  0.56709646     0.24000
C1569       C  0.38294895  0.18011983  0.56035540    -0.12000
C1570       C  0.37080357  0.18077449  0.54225415     0.05400
C1571       C  0.40563128  0.16105197  0.58527227     0.27800
C1572       C  0.39753580  0.15960496  0.60546269    -0.12700
C1573       C  0.41100473  0.16004500  0.62266002     0.05900
C1574       C  0.43265635  0.16159676  0.61968403    -0.08600
C1575       C  0.44071630  0.16309145  0.59944113     0.06700
C1576       C  0.42720892  0.16295575  0.58229211    -0.13000
Br1577     Br  0.38820952  0.20508885  0.57590022    -0.05100
Br1578     Br  0.37189940  0.11870275  0.52160717     0.00600
Br1579     Br  0.39977096  0.15784440  0.65024306     0.01000
Br1580     Br  0.43811683  0.16576703  0.55461342    -0.03400
Br1581     Br  0.35932213  0.20688125  0.53345814     0.01100
Br1582     Br  0.39935979  0.11727598  0.56533545    -0.02700
Br1583     Br  0.36796996  0.15697036  0.60943054    -0.03500
Br1584     Br  0.47017671  0.16642264  0.59517664     0.00400
C1585       C  0.53426315  0.15247927  0.64237168     0.01800
C1586       C  0.53603154  0.14070999  0.62402957     0.04700
C1587       C  0.55467085  0.14099504  0.61264129    -0.11400
C1588       C  0.57151199  0.15316319  0.61942811     0.24000
C1589       C  0.57007401  0.16417582  0.63819162    -0.12000
C1590       C  0.55148549  0.16389537  0.64961647     0.05400
C1591       C  0.59000369  0.15576946  0.60595545     0.27800
C1592       C  0.60688868  0.14202442  0.60733021    -0.12700
C1593       C  0.62386381  0.14403190  0.59372652     0.05900
C1594       C  0.62412428  0.16001073  0.57882795    -0.08600
C1595       C  0.60746624  0.17420690  0.57802389     0.06700
C1596       C  0.59045951  0.17202525  0.59150991    -0.13000
Br1597     Br  0.59350345  0.18006473  0.64785352    -0.05100
Br1598     Br  0.51241755  0.12565564  0.61344075     0.00600
Br1599     Br  0.64704560  0.12525809  0.59609801     0.01000
Br1600     Br  0.56745450  0.19113057  0.59009631    -0.03400
Br1601     Br  0.54966873  0.17916565  0.67526119     0.01100
Br1602     Br  0.55699749  0.12536441  0.58726794    -0.02700
Br1603     Br  0.60665275  0.12057934  0.62801724    -0.03500
Br1604     Br  0.60713027  0.19598750  0.55766818     0.00400
C1605       C  0.38603154  0.05930764  0.78992665     0.01800
C1606       C  0.39683316  0.04767057  0.77480377     0.04700
C1607       C  0.40889033  0.05774283  0.75965528    -0.11400
C1608       C  0.40938881  0.07946432  0.75882755     0.24000
C1609       C  0.39838864  0.09110917  0.77363990    -0.12000
C1610       C  0.38730830  0.08111731  0.78949488     0.05400
C1611       C  0.42196988  0.09024571  0.74284656     0.27800
C1612       C  0.44166751  0.09814791  0.74808663    -0.12700
C1613       C  0.45263649  0.11051920  0.73392580     0.05900
C1614       C  0.44427903  0.11442002  0.71406148    -0.08600
C1615       C  0.42513801  0.10532872  0.70837559     0.06700
C1616       C  0.41388510  0.09354312  0.72283073    -0.13000
Br1617     Br  0.39836974  0.12089139  0.77197487    -0.05100
Br1618     Br  0.39419747  0.01801659  0.77376031     0.00600
Br1619     Br  0.47826223  0.12334846  0.74260134     0.01000
Br1620     Br  0.38717939  0.08221240  0.71538822    -0.03400
Br1621     Br  0.37506216  0.09750867  0.81132377     0.01100
Br1622     Br  0.42486928  0.04192301  0.73995311    -0.02700
Br1623     Br  0.45338056  0.09216754  0.77494307    -0.03500
Br1624     Br  0.41457338  0.10834188  0.68053315     0.00400
C1625       C  0.97645455  0.34607745  0.14140321     0.01800
C1626       C  0.96088459  0.33132383  0.14542495     0.04700
C1627       C  0.94264596  0.33094270  0.13342787    -0.11400
C1628       C  0.93982252  0.34532133  0.11734564     0.24000
C1629       C  0.95492587  0.36068799  0.11388460    -0.12000
C1630       C  0.97320022  0.36114636  0.12595619     0.05400
C1631       C  0.92123858  0.34385276  0.10372529     0.27800
C1632       C  0.92137881  0.33040447  0.08653095    -0.12700
C1633       C  0.90381096  0.32893210  0.07357441     0.05900
C1634       C  0.88612146  0.34120722  0.07755230    -0.08600
C1635       C  0.88590139  0.35440449  0.09499303     0.06700
C1636       C  0.90337745  0.35562722  0.10809517    -0.13000
Br1637     Br  0.95075163  0.38064439  0.09211577    -0.05100
Br1638     Br  0.96432451  0.31190595  0.16783182     0.00600
Br1639     Br  0.90447908  0.31077585  0.04984360     0.01000
Br1640     Br  0.90297995  0.37337666  0.13212457    -0.03400
Br1641     Br  0.99416870  0.38168392  0.12045766     0.01100
Br1642     Br  0.92159220  0.31048259  0.13874404    -0.02700
Br1643     Br  0.94591851  0.31432087  0.08057622    -0.03500
Br1644     Br  0.86134388  0.37023744  0.10144992     0.00400
C1645       C  0.92950907  0.33847339  0.88107246     0.01800
C1646       C  0.92389940  0.32025948  0.89183222     0.04700
C1647       C  0.91108849  0.32143669  0.90951771    -0.11400
C1648       C  0.90405941  0.34072609  0.91682849     0.24000
C1649       C  0.90910481  0.35879212  0.90587735    -0.12000
C1650       C  0.92153110  0.35770527  0.88797074     0.05400
C1651       C  0.89216897  0.34215510  0.93657044     0.27800
C1652       C  0.87030241  0.34331247  0.93636055    -0.12700
C1653       C  0.85918498  0.34474631  0.95512262     0.05900
C1654       C  0.86989290  0.34507970  0.97422609    -0.08600
C1655       C  0.89180678  0.34402456  0.97437023     0.06700
C1656       C  0.90287700  0.34255858  0.95562185    -0.13000
Br1657     Br  0.89915131  0.38516146  0.91574254    -0.05100
Br1658     Br  0.93459808  0.29365596  0.88345412     0.00600
Br1659     Br  0.82922564  0.34488092  0.95464745     0.01000
Br1660     Br  0.93282137  0.34098516  0.95591844    -0.03400
Br1661     Br  0.92665563  0.38275408  0.87257545     0.01100
Br1662     Br  0.90334934  0.29665302  0.92415520    -0.02700
Br1663     Br  0.85565141  0.34246469  0.91029462    -0.03500
Br1664     Br  0.90682349  0.34523040  0.00023646     0.00400
C1665       C  0.63863747  0.52728036  0.16279455     0.01800
C1666       C  0.63437635  0.53795852  0.14413910     0.04700
C1667       C  0.62176066  0.55579547  0.14436800    -0.11400
C1668       C  0.61310558  0.56292607  0.16308149     0.24000
C1669       C  0.61713764  0.55228071  0.18161056    -0.12000
C1670       C  0.63019035  0.53485398  0.18161127     0.05400
C1671       C  0.59963520  0.58159245  0.16345531     0.27800
C1672       C  0.60808406  0.60097216  0.16876366    -0.12700
C1673       C  0.59510766  0.61844298  0.17037967     0.05900
C1674       C  0.57359102  0.61663128  0.16651391    -0.08600
C1675       C  0.56518275  0.59715954  0.16119047     0.06700
C1676       C  0.57819631  0.57974776  0.15956870    -0.13000
Br1677     Br  0.60428223  0.56147474  0.20702464    -0.05100
Br1678     Br  0.64481383  0.52790378  0.11798609     0.00600
Br1679     Br  0.60705670  0.64493399  0.17713690     0.01000
Br1680     Br  0.56672793  0.55320039  0.15216369    -0.03400
Br1681     Br  0.63731415  0.52244256  0.20789917     0.01100
Br1682     Br  0.61581599  0.57037067  0.11900367    -0.02700
Br1683     Br  0.63755925  0.60347947  0.17358857    -0.03500
Br1684     Br  0.53560472  0.59391274  0.15734367     0.00400
C1685       C  0.71604042  0.48682631  0.21962517     0.01800
C1686       C  0.72903688  0.47207294  0.22924141     0.04700
C1687       C  0.74283479  0.47816901  0.24509060    -0.11400
C1688       C  0.74385094  0.49900634  0.25132743     0.24000
C1689       C  0.73067984  0.51367753  0.24206569    -0.12000
C1690       C  0.71672169  0.50762785  0.22637567     0.05400
C1691       C  0.75956661  0.50570070  0.26682903     0.27800
C1692       C  0.75458608  0.50644683  0.28807371    -0.12700
C1693       C  0.76982061  0.51216090  0.30271738     0.05900
C1694       C  0.78993805  0.51758289  0.29605091    -0.08600
C1695       C  0.79464109  0.51753401  0.27471868     0.06700
C1696       C  0.77958890  0.51135814  0.26019249    -0.13000
Br1697     Br  0.73224777  0.54221222  0.25066386    -0.05100
Br1698     Br  0.72921824  0.44378156  0.21979441     0.00600
Br1699     Br  0.76347817  0.51130643  0.33188552     0.01000
Br1700     Br  0.78643022  0.51043658  0.23112681    -0.03400
Br1701     Br  0.69815205  0.52793990  0.21468297     0.01100
Br1702     Br  0.76097499  0.45816967  0.25790341    -0.02700
Br1703     Br  0.72692502  0.49940535  0.29698642    -0.03500
Br1704     Br  0.82156169  0.52671413  0.26526762     0.00400
C1705       C  0.71814420  0.44400131  0.12068055     0.01800
C1706       C  0.73939359  0.44912736  0.12016861     0.04700
C1707       C  0.75299103  0.43819810  0.10701867    -0.11400
C1708       C  0.74544772  0.42187476  0.09461524     0.24000
C1709       C  0.72407208  0.41720562  0.09466919    -0.12000
C1710       C  0.71044135  0.42840233  0.10751369     0.05400
C1711       C  0.76026923  0.40849948  0.08304432     0.27800
C1712       C  0.76513467  0.41254645  0.06219280    -0.12700
C1713       C  0.77953832  0.39995038  0.05155179     0.05900
C1714       C  0.78963068  0.38350654  0.06193120    -0.08600
C1715       C  0.78453246  0.37950862  0.08291212     0.06700
C1716       C  0.76971871  0.39176287  0.09323094    -0.13000
Br1717     Br  0.71366196  0.39486086  0.07781873    -0.05100
Br1718     Br  0.75001612  0.47032492  0.13832640     0.00600
Br1719     Br  0.78418839  0.40455784  0.02242374     0.01000
Br1720     Br  0.76214606  0.38566325  0.12151700    -0.03400
Br1721     Br  0.68113793  0.42242785  0.10713883     0.01100
Br1722     Br  0.78215142  0.44493592  0.10650492    -0.02700
Br1723     Br  0.75181987  0.43534688  0.04830321    -0.03500
Br1724     Br  0.79836191  0.35792138  0.09832031     0.00400
C1725       C  0.67112640  0.12144561  0.92885786     0.01800
C1726       C  0.66976663  0.12312146  0.90711006     0.04700
C1727       C  0.66827639  0.10514495  0.89481976    -0.11400
C1728       C  0.66896052  0.08550274  0.90417573     0.24000
C1729       C  0.67134681  0.08386785  0.92579298    -0.12000
C1730       C  0.67221299  0.10176669  0.93810917     0.05400
C1731       C  0.66737870  0.06645201  0.89140138     0.27800
C1732       C  0.64777642  0.05823267  0.88630211    -0.12700
C1733       C  0.64627421  0.03959011  0.87506411     0.05900
C1734       C  0.66446705  0.02875542  0.86931366    -0.08600
C1735       C  0.68415105  0.03710126  0.87461426     0.06700
C1736       C  0.68552332  0.05599612  0.88533639    -0.13000
Br1737     Br  0.67330764  0.05700063  0.93852108    -0.05100
Br1738     Br  0.66931973  0.14992816  0.89417403     0.00600
Br1739     Br  0.61916431  0.02844489  0.86891530     0.01000
Br1740     Br  0.71233281  0.06763075  0.89206099    -0.03400
Br1741     Br  0.67561723  0.09931282  0.96772325     0.01100
Br1742     Br  0.66475052  0.10726493  0.86522507    -0.02700
Br1743     Br  0.62300566  0.07231140  0.89547848    -0.03500
Br1744     Br  0.70961597  0.02315115  0.86708618     0.00400
C1745       C  0.71440338  0.21992728  0.98709270     0.01800
C1746       C  0.71237500  0.23060363  0.00618370     0.04700
C1747       C  0.72791406  0.24446618  0.01269952    -0.11400
C1748       C  0.74512584  0.24843556  0.99992899     0.24000
C1749       C  0.74691714  0.23834476  0.98067541    -0.12000
C1750       C  0.73177401  0.22395666  0.97434988     0.05400
C1751       C  0.76084324  0.26401108  0.00627917     0.27800
C1752       C  0.75701512  0.28509852  0.00271378    -0.12700
C1753       C  0.77195985  0.29995522  0.00826262     0.05900
C1754       C  0.79113350  0.29375801  0.01708469    -0.08600
C1755       C  0.79478854  0.27256010  0.02091467     0.06700
C1756       C  0.77956958  0.25778965  0.01569974    -0.13000
Br1757     Br  0.76993822  0.24479644  0.96272629    -0.05100
Br1758     Br  0.68862503  0.22631460  0.02393156     0.00600
Br1759     Br  0.76529905  0.32885975  0.00471186     0.01000
Br1760     Br  0.78420621  0.22893524  0.02150634    -0.03400
Br1761     Br  0.73436398  0.21094812  0.94752852     0.01100
Br1762     Br  0.72577080  0.25813672  0.03922978    -0.02700
Br1763     Br  0.73106887  0.29355766  0.99026908    -0.03500
Br1764     Br  0.82095991  0.26337479  0.03228111     0.00400
C1765       C  0.58550866  0.37895577  0.83629654     0.01800
C1766       C  0.58525553  0.39485323  0.82131926     0.04700
C1767       C  0.59858519  0.41199922  0.82344908    -0.11400
C1768       C  0.61231078  0.41335924  0.84042838     0.24000
C1769       C  0.61331670  0.39711645  0.85481603    -0.12000
C1770       C  0.60003619  0.37994291  0.85275914     0.05400
C1771       C  0.62481956  0.43241897  0.84364750     0.27800
C1772       C  0.64461044  0.43437067  0.83459967    -0.12700
C1773       C  0.65519645  0.45338570  0.83555652     0.05900
C1774       C  0.64634948  0.47029887  0.84612769    -0.08600
C1775       C  0.62728019  0.46785377  0.85647329     0.06700
C1776       C  0.61644943  0.44900638  0.85510119    -0.13000
Br1777     Br  0.63263831  0.39880484  0.87763272    -0.05100
Br1778     Br  0.56576142  0.39410783  0.79857618     0.00600
Br1779     Br  0.68168168  0.45642385  0.82211275     0.01000
Br1780     Br  0.58991610  0.44590698  0.86855381    -0.03400
Br1781     Br  0.60233181  0.35753962  0.87230301     0.01100
Br1782     Br  0.59754337  0.43419597  0.80356377    -0.02700
Br1783     Br  0.65708996  0.41097362  0.82090601    -0.03500
Br1784     Br  0.61575077  0.49052957  0.87201968     0.00400
C1785       C  0.48605357  0.21078847  0.71522038     0.01800
C1786       C  0.48460530  0.20767290  0.73683274     0.04700
C1787       C  0.49085748  0.22329088  0.75069596    -0.11400
C1788       C  0.49787551  0.24242030  0.74313219     0.24000
C1789       C  0.49830998  0.24600970  0.72163192    -0.12000
C1790       C  0.49268922  0.23018274  0.70767012     0.05400
C1791       C  0.50483141  0.25870145  0.75788070     0.27800
C1792       C  0.49060350  0.27349987  0.76526757    -0.12700
C1793       C  0.49702655  0.28851421  0.77975911     0.05900
C1794       C  0.51768212  0.28858538  0.78720676    -0.08600
C1795       C  0.53186369  0.27364496  0.77985744     0.06700
C1796       C  0.52551382  0.25893003  0.76505103    -0.13000
Br1797     Br  0.50683592  0.27266314  0.71143198    -0.05100
Br1798     Br  0.47290513  0.18247755  0.74766736     0.00600
Br1799     Br  0.47758128  0.30930445  0.78884587     0.01000
Br1800     Br  0.54501914  0.23872690  0.75482507    -0.03400
Br1801     Br  0.49534961  0.23492068  0.67829163     0.01100
Br1802     Br  0.48996344  0.21852795  0.78017648    -0.02700
Br1803     Br  0.46221175  0.27284898  0.75565005    -0.03500
Br1804     Br  0.55956510  0.27221538  0.79126808     0.00400
C1805       C  0.56743034  0.28657889  0.87854993     0.01800
C1806       C  0.58905236  0.28282461  0.87663473     0.04700
C1807       C  0.59891127  0.26820208  0.88945968    -0.11400
C1808       C  0.58741110  0.25732015  0.90439528     0.24000
C1809       C  0.56603545  0.26124609  0.90665481    -0.12000
C1810       C  0.55601190  0.27566504  0.89370142     0.05400
C1811       C  0.59790172  0.24162225  0.91757034     0.27800
C1812       C  0.60117626  0.22147378  0.90991333    -0.12700
C1813       C  0.61272957  0.20715443  0.92158095     0.05900
C1814       C  0.62111611  0.21292604  0.94092331    -0.08600
C1815       C  0.61700279  0.23274556  0.94903828     0.06700
C1816       C  0.60544979  0.24708197  0.93734774    -0.13000
Br1817     Br  0.55053913  0.24662408  0.92753049    -0.05100
Br1818     Br  0.60573678  0.29815495  0.85714218     0.00600
Br1819     Br  0.61693570  0.17947899  0.91120992     0.01000
Br1820     Br  0.60071478  0.27455338  0.94794006    -0.03400
Br1821     Br  0.52635231  0.27922254  0.89604328     0.01100
Br1822     Br  0.62836162  0.26304373  0.88678746    -0.02700
Br1823     Br  0.59037401  0.21375159  0.88311332    -0.03500
Br1824     Br  0.62846290  0.24079859  0.97548285     0.00400
C1825       C  0.57521020  0.16350470  0.38406737     0.01800
C1826       C  0.58348159  0.14413945  0.39024962     0.04700
C1827       C  0.59612649  0.14266584  0.40800666    -0.11400
C1828       C  0.60160549  0.16054041  0.41911255     0.24000
C1829       C  0.59453643  0.17997265  0.41236598    -0.12000
C1830       C  0.58097483  0.18146412  0.39525390     0.05400
C1831       C  0.61401134  0.15881841  0.43847629     0.27800
C1832       C  0.60381063  0.15743983  0.45770412    -0.12700
C1833       C  0.61541167  0.15644286  0.47617546     0.05900
C1834       C  0.63731577  0.15689994  0.47552260    -0.08600
C1835       C  0.64751798  0.15765727  0.45619914     0.06700
C1836       C  0.63587239  0.15861496  0.43772489    -0.13000
Br1837     Br  0.60332098  0.20450702  0.42698227    -0.05100
Br1838     Br  0.57853895  0.11944471  0.37416206     0.00600
Br1839     Br  0.60124370  0.15372408  0.50234646     0.01000
Br1840     Br  0.64975087  0.16011033  0.41132171    -0.03400
Br1841     Br  0.56923013  0.20805331  0.38853123     0.01100
Br1842     Br  0.60566631  0.11605593  0.41760326    -0.02700
Br1843     Br  0.57385318  0.15708005  0.45860199    -0.03500
Br1844     Br  0.67742177  0.15856169  0.45495927     0.00400
C1845       C  0.38247469  0.16340164  0.43011828     0.01800
C1846       C  0.40055735  0.17490168  0.43446815     0.04700
C1847       C  0.41791949  0.17336993  0.42135632    -0.11400
C1848       C  0.41708735  0.16080911  0.40351911     0.24000
C1849       C  0.39900393  0.14934192  0.39913541    -0.12000
C1850       C  0.38186736  0.15031196  0.41263351     0.05400
C1851       C  0.43528004  0.15980281  0.38941487     0.27800
C1852       C  0.43803100  0.17509599  0.37421048    -0.12700
C1853       C  0.45602349  0.17510791  0.36185390     0.05900
C1854       C  0.47138826  0.15975660  0.36457529    -0.08600
C1855       C  0.46816398  0.14392939  0.37925027     0.06700
C1856       C  0.45022947  0.14407818  0.39174706    -0.13000
Br1857     Br  0.39773688  0.13249192  0.37450788    -0.05100
Br1858     Br  0.40199864  0.19188088  0.45905585     0.00600
Br1859     Br  0.45921480  0.19588317  0.34075163     0.01000
Br1860     Br  0.44640980  0.12327109  0.41274377    -0.03400
Br1861     Br  0.35743430  0.13397405  0.40696432     0.01100
Br1862     Br  0.44310398  0.18810323  0.42801706    -0.02700
Br1863     Br  0.41720034  0.19626337  0.37068375    -0.03500
Br1864     Br  0.48879596  0.12268157  0.38322837     0.00400
C1865       C  0.66534875  0.14197334  0.02999522     0.01800
C1866       C  0.67912684  0.14752802  0.04611449     0.04700
C1867       C  0.67938928  0.13619385  0.06470580    -0.11400
C1868       C  0.66639376  0.11886035  0.06700788     0.24000
C1869       C  0.65295359  0.11305219  0.05075926    -0.12000
C1870       C  0.65223316  0.12472119  0.03240431     0.05400
C1871       C  0.66727689  0.10627708  0.08621637     0.27800
C1872       C  0.68249943  0.09079335  0.08836219    -0.12700
C1873       C  0.68272554  0.07808267  0.10602099     0.05900
C1874       C  0.66771182  0.08081702  0.12171405    -0.08600
C1875       C  0.65263661  0.09657138  0.11965629     0.06700
C1876       C  0.65247284  0.10927803  0.10197031    -0.13000
Br1877     Br  0.63617219  0.08853477  0.05340962    -0.05100
Br1878     Br  0.69762953  0.17072288  0.04284359     0.00600
Br1879     Br  0.70279192  0.05598642  0.10786289     0.01000
Br1880     Br  0.63192108  0.13081605  0.09913118    -0.03400
Br1881     Br  0.63433240  0.11613945  0.00998800     0.01100
Br1882     Br  0.69771630  0.14416763  0.08700829    -0.02700
Br1883     Br  0.70272775  0.08670860  0.06672273    -0.03500
Br1884     Br  0.63251945  0.10130578  0.14125748     0.00400
C1885       C  0.66236195  0.97706527  0.14340994     0.01800
C1886       C  0.64369812  0.96547401  0.14247837     0.04700
C1887       C  0.64328174  0.94616218  0.13230312    -0.11400
C1888       C  0.66127759  0.93838290  0.12268704     0.24000
C1889       C  0.68003314  0.94940059  0.12424537    -0.12000
C1890       C  0.68067390  0.96858106  0.13457595     0.05400
C1891       C  0.66017675  0.91962240  0.10932010     0.27800
C1892       C  0.66622993  0.90013500  0.11692970    -0.12700
C1893       C  0.66634514  0.88276655  0.10366560     0.05900
C1894       C  0.66039968  0.88482229  0.08267747    -0.08600
C1895       C  0.65403167  0.90434180  0.07523149     0.06700
C1896       C  0.65391324  0.92161586  0.08850809    -0.13000
Br1897     Br  0.70488511  0.93811966  0.11186975    -0.05100
Br1898     Br  0.61811806  0.97628348  0.15374063     0.00600
Br1899     Br  0.67376513  0.85604544  0.11459082     0.01000
Br1900     Br  0.64555726  0.94830583  0.07811274    -0.03400
Br1901     Br  0.70712797  0.98254816  0.13689452     0.01100
Br1902     Br  0.61793678  0.93031660  0.13110678    -0.02700
Br1903     Br  0.67437128  0.89739269  0.14555646    -0.03500
Br1904     Br  0.64655622  0.90791354  0.04648275     0.00400
C1905       C  0.62349135  0.06831677  0.21605106     0.01800
C1906       C  0.61052898  0.05670900  0.22930645     0.04700
C1907       C  0.59825126  0.06678668  0.24428984    -0.11400
C1908       C  0.59891863  0.08843690  0.24622287     0.24000
C1909       C  0.61156761  0.10007886  0.23287459    -0.12000
C1910       C  0.62368020  0.09011333  0.21773580     0.05400
C1911       C  0.58634141  0.09908895  0.26228502     0.27800
C1912       C  0.56530350  0.10371912  0.25846290    -0.12700
C1913       C  0.55367106  0.11485850  0.27318778     0.05900
C1914       C  0.56320886  0.12183516  0.29162864    -0.08600
C1915       C  0.58425454  0.11695197  0.29550555     0.06700
C1916       C  0.59568983  0.10540196  0.28098579    -0.13000
Br1917     Br  0.61233375  0.12979785  0.23552267    -0.05100
Br1918     Br  0.61034387  0.02692684  0.22801328     0.00600
Br1919     Br  0.52516022  0.12189071  0.26718771     0.01000
Br1920     Br  0.62438518  0.09858939  0.28641829    -0.03400
Br1921     Br  0.63974276  0.10668262  0.19879462     0.01100
Br1922     Br  0.58076269  0.05099468  0.26259509    -0.02700
Br1923     Br  0.55280674  0.09559859  0.23251371    -0.03500
Br1924     Br  0.59759589  0.12597395  0.32074126     0.00400
C1925       C  0.88275009  0.92767309  0.34431984     0.01800
C1926       C  0.88023689  0.90609156  0.34277131     0.04700
C1927       C  0.89750674  0.89294570  0.34516625    -0.11400
C1928       C  0.91761421  0.90133090  0.34729269     0.24000
C1929       C  0.92020780  0.92293781  0.34815764    -0.12000
C1930       C  0.90279476  0.93604331  0.34714120     0.05400
C1931       C  0.93613909  0.88757626  0.34677168     0.27800
C1932       C  0.94779811  0.88377089  0.36486968    -0.12700
C1933       C  0.96626888  0.87208012  0.36383067     0.05900
C1934       C  0.97273862  0.86340416  0.34474209    -0.08600
C1935       C  0.96014803  0.86608981  0.32696777     0.06700
C1936       C  0.94237476  0.87868803  0.32784571    -0.13000
Br1937     Br  0.94771800  0.93463532  0.35004604    -0.05100
Br1938     Br  0.85333955  0.89440891  0.33695452     0.00600
Br1939     Br  0.98297550  0.86904218  0.38851416     0.01000
Br1940     Br  0.92679828  0.88428418  0.30286507    -0.03400
Br1941     Br  0.90663219  0.96562826  0.34812030     0.01100
Br1942     Br  0.89369021  0.86338805  0.34570774    -0.02700
Br1943     Br  0.93848219  0.89483112  0.39105358    -0.03500
Br1944     Br  0.96614846  0.85140294  0.30157608     0.00400
C1945       C  0.86934662  0.02725547  0.34076628     0.01800
C1946       C  0.87605066  0.03411048  0.32103364     0.04700
C1947       C  0.88932952  0.05128612  0.31933216    -0.11400
C1948       C  0.89567750  0.06207717  0.33719131     0.24000
C1949       C  0.88870105  0.05561455  0.35681250    -0.12000
C1950       C  0.87565736  0.03824077  0.35865386     0.05400
C1951       C  0.90963001  0.08031351  0.33544792     0.27800
C1952       C  0.93099750  0.07828327  0.33972097    -0.12700
C1953       C  0.94389274  0.09584036  0.33990205     0.05900
C1954       C  0.93562056  0.11550049  0.33518482    -0.08600
C1955       C  0.91442224  0.11733049  0.32984286     0.06700
C1956       C  0.90141904  0.09981880  0.33025229    -0.13000
Br1957     Br  0.89729364  0.07062104  0.38123020    -0.05100
Br1958     Br  0.86635604  0.02084329  0.29594251     0.00600
Br1959     Br  0.97308185  0.09276740  0.34614023     0.01000
Br1960     Br  0.87215453  0.10251454  0.32429721    -0.03400
Br1961     Br  0.86746971  0.02915609  0.38589582     0.01100
Br1962     Br  0.89901847  0.06004101  0.29246929    -0.02700
Br1963     Br  0.94252205  0.05133406  0.34533649    -0.03500
Br1964     Br  0.90283013  0.14393227  0.32304899     0.00400
C1965       C  0.71720079  0.02334640  0.21655291     0.01800
C1966       C  0.73781435  0.01973235  0.20993808     0.04700
C1967       C  0.75301903  0.01332542  0.22429879    -0.11400
C1968       C  0.74772567  0.01048160  0.24524720     0.24000
C1969       C  0.72740013  0.01470535  0.25200214    -0.12000
C1970       C  0.71218485  0.02115034  0.23776199     0.05400
C1971       C  0.76346668  0.00313455  0.26036169     0.27800
C1972       C  0.76503431  0.98193340  0.26498638    -0.12700
C1973       C  0.77879147  0.97511375  0.28052419     0.05900
C1974       C  0.79118819  0.98951230  0.29138326    -0.08600
C1975       C  0.78989775  0.01071921  0.28635505     0.06700
C1976       C  0.77600590  0.01748024  0.27095630    -0.13000
Br1977     Br  0.72054044  0.01169811  0.28094601    -0.05100
Br1978     Br  0.74519169  0.02240077  0.18111859     0.00600
Br1979     Br  0.77935327  0.94625022  0.28791453     0.01000
Br1980     Br  0.77367067  0.04650367  0.26461440    -0.03400
Br1981     Br  0.68470165  0.02783001  0.24775692     0.01100
Br1982     Br  0.78114645  0.00819219  0.21540451    -0.02700
Br1983     Br  0.74775215  0.96237563  0.25038834    -0.03500
Br1984     Br  0.80746531  0.03066054  0.30012811     0.00400
C1985       C  0.62257794  0.83753494  0.43145083     0.01800
C1986       C  0.62001204  0.85408204  0.41735200     0.04700
C1987       C  0.60234857  0.85503690  0.40445532    -0.11400
C1988       C  0.58680935  0.83984113  0.40580180     0.24000
C1989       C  0.58891016  0.82371403  0.42028093    -0.12000
C1990       C  0.60665986  0.82257214  0.43310479     0.05400
C1991       C  0.56785908  0.84137150  0.39256827     0.27800
C1992       C  0.55030224  0.85226204  0.39975446    -0.12700
C1993       C  0.53227173  0.85355206  0.38740702     0.05900
C1994       C  0.53169576  0.84397943  0.36779402    -0.08600
C1995       C  0.54940537  0.83352708  0.36037362     0.06700
C1996       C  0.56745331  0.83223499  0.37271621    -0.13000
Br1997     Br  0.56705956  0.80351392  0.42285488    -0.05100
Br1998     Br  0.64044368  0.87575068  0.41545728     0.00600
Br1999     Br  0.50796954  0.86761318  0.39772869     0.01000
Br2000     Br  0.59161480  0.81784453  0.36255581    -0.03400
Br2001     Br  0.60799430  0.80162453  0.45430543     0.01100
Br2002     Br  0.59915733  0.87735921  0.38493877    -0.02700
Br2003     Br  0.55094496  0.86513930  0.42670654    -0.03500
Br2004     Br  0.54894575  0.82131462  0.33309073     0.00400
C2005       C  0.64295944  0.84777518  0.52940696     0.01800
C2006       C  0.62124709  0.85055087  0.52820725     0.04700
C2007       C  0.60924628  0.85102101  0.54639227    -0.11400
C2008       C  0.61891455  0.84891707  0.56585677     0.24000
C2009       C  0.64071452  0.84743378  0.56714321    -0.12000
C2010       C  0.65275189  0.84692337  0.54895360     0.05400
C2011       C  0.60608526  0.84650772  0.58479742     0.27800
C2012       C  0.59983760  0.86387690  0.59631716    -0.12700
C2013       C  0.58808290  0.86136027  0.61452227     0.05900
C2014       C  0.58159233  0.84139872  0.62080095    -0.08600
C2015       C  0.58763416  0.82402863  0.60886616     0.06700
C2016       C  0.60017909  0.82661033  0.59121616    -0.13000
Br2017     Br  0.65386230  0.84495981  0.59389461    -0.05100
Br2018     Br  0.60796169  0.85407714  0.50160606     0.00600
Br2019     Br  0.58209217  0.88543471  0.63123919     0.01000
Br2020     Br  0.60926883  0.80287417  0.57546493    -0.03400
Br2021     Br  0.68245925  0.84359834  0.55090990     0.01100
Br2022     Br  0.57944594  0.85366732  0.54470226    -0.02700
Br2023     Br  0.60728396  0.89114568  0.58689128    -0.03500
Br2024     Br  0.57782229  0.79666873  0.61550184     0.00400
C2025       C  0.72182391  0.87542138  0.44157723     0.01800
C2026       C  0.73938597  0.88286323  0.45239778     0.04700
C2027       C  0.75310948  0.89681663  0.44281202    -0.11400
C2028       C  0.74950252  0.90323928  0.42229498     0.24000
C2029       C  0.73229181  0.89545204  0.41128321    -0.12000
C2030       C  0.71865190  0.88138069  0.42077086     0.05400
C2031       C  0.76471228  0.91672704  0.41156204     0.27800
C2032       C  0.76116218  0.93815111  0.40969482    -0.12700
C2033       C  0.77443228  0.95034303  0.39737159     0.05900
C2034       C  0.79160874  0.94117611  0.38741267    -0.08600
C2035       C  0.79583374  0.92002987  0.39049069     0.06700
C2036       C  0.78227058  0.90778117  0.40219574    -0.13000
Br2037     Br  0.72759713  0.90401771  0.38302319    -0.05100
Br2038     Br  0.74578074  0.87247112  0.47965338     0.00600
Br2039     Br  0.76821986  0.97913090  0.39296535     0.01000
Br2040     Br  0.78739278  0.87852331  0.40486487    -0.03400
Br2041     Br  0.69571958  0.87036362  0.40502328     0.01100
Br2042     Br  0.77716332  0.90690332  0.45752933    -0.02700
Br2043     Br  0.73785046  0.95054895  0.42369525    -0.03500
Br2044     Br  0.82061233  0.90783277  0.37908382     0.00400
C2045       C  0.33866846  0.11905343  0.07793517     0.01800
C2046       C  0.33873212  0.09908221  0.06916147     0.04700
C2047       C  0.33924769  0.08152462  0.08198410    -0.11400
C2048       C  0.34022777  0.08377087  0.10368797     0.24000
C2049       C  0.34040860  0.10373220  0.11248249    -0.12000
C2050       C  0.33945086  0.12133404  0.09965406     0.05400
C2051       C  0.34082681  0.06505500  0.11712855     0.27800
C2052       C  0.32220418  0.05623133  0.12421128    -0.12700
C2053       C  0.32252633  0.03759216  0.13546373     0.05900
C2054       C  0.34161840  0.02749198  0.13980564    -0.08600
C2055       C  0.36037306  0.03694641  0.13338893     0.06700
C2056       C  0.35991142  0.05563867  0.12213203    -0.13000
Br2057     Br  0.34227574  0.10683178  0.14211602    -0.05100
Br2058     Br  0.33765604  0.09571805  0.03948794     0.00600
Br2059     Br  0.29652623  0.02661846  0.14545882     0.01000
Br2060     Br  0.38541473  0.06847521  0.11324764    -0.03400
Br2061     Br  0.34026929  0.14857190  0.11176865     0.01100
Br2062     Br  0.33847324  0.05429111  0.06982636    -0.02700
Br2063     Br  0.29617571  0.06989919  0.11838089    -0.03500
Br2064     Br  0.38681544  0.02398578  0.13878088     0.00400
C2065       C  0.34203229  0.07113815  0.88801040     0.01800
C2066       C  0.33052285  0.08972681  0.88699443     0.04700
C2067       C  0.32856291  0.10246259  0.90462572    -0.11400
C2068       C  0.33885797  0.09730261  0.92317998     0.24000
C2069       C  0.35076243  0.07904202  0.92414477    -0.12000
C2070       C  0.35221395  0.06589929  0.90673430     0.05400
C2071       C  0.33752275  0.11125795  0.94157749     0.27800
C2072       C  0.35013683  0.12898301  0.94281588    -0.12700
C2073       C  0.34956190  0.14175431  0.96053787     0.05900
C2074       C  0.33669134  0.13665751  0.97752095    -0.08600
C2075       C  0.32309567  0.11946058  0.97564588     0.06700
C2076       C  0.32364514  0.10683619  0.95779252    -0.13000
Br2077     Br  0.36498767  0.07203412  0.94952784    -0.05100
Br2078     Br  0.31866458  0.09875077  0.86105967     0.00600
Br2079     Br  0.36520817  0.16716993  0.96053448     0.01000
Br2080     Br  0.30537984  0.08328022  0.95538615    -0.03400
Br2081     Br  0.36750805  0.04033513  0.90909550     0.01100
Br2082     Br  0.31157796  0.12699959  0.90351186    -0.02700
Br2083     Br  0.36824744  0.13572493  0.92003521    -0.03500
Br2084     Br  0.30366127  0.11253684  0.99730146     0.00400
C2085       C  0.43125871  0.38734840  0.16446256     0.01800
C2086       C  0.41255212  0.38687441  0.15301012     0.04700
C2087       C  0.39910760  0.40405984  0.15308063    -0.11400
C2088       C  0.40455024  0.42209892  0.16404010     0.24000
C2089       C  0.42336896  0.42274188  0.17525324    -0.12000
C2090       C  0.43665847  0.40541247  0.17551458     0.05400
C2091       C  0.39019411  0.44015867  0.16435329     0.27800
C2092       C  0.38947237  0.45401152  0.14753492    -0.12700
C2093       C  0.37623610  0.47135039  0.14821176     0.05900
C2094       C  0.36404568  0.47523679  0.16597428    -0.08600
C2095       C  0.36465217  0.46123541  0.18269726     0.06700
C2096       C  0.37733150  0.44353823  0.18165921    -0.13000
Br2097     Br  0.43080414  0.44743394  0.19035829    -0.05100
Br2098     Br  0.40493434  0.36244183  0.13765439     0.00600
Br2099     Br  0.37577776  0.49035747  0.12518074     0.01000
Br2100     Br  0.37686094  0.42354808  0.20376587    -0.03400
Br2101     Br  0.46279334  0.40689950  0.19010653     0.01100
Br2102     Br  0.37280007  0.40274130  0.13877418    -0.02700
Br2103     Br  0.40686660  0.44938030  0.12367045    -0.03500
Br2104     Br  0.34774168  0.46587872  0.20690775     0.00400
C2105       C  0.53345138  0.36529326  0.15969084     0.01800
C2106       C  0.54720430  0.36313538  0.17665452     0.04700
C2107       C  0.56549429  0.37499572  0.17766104    -0.11400
C2108       C  0.57057965  0.38849938  0.16139568     0.24000
C2109       C  0.55733892  0.39006643  0.14406229    -0.12000
C2110       C  0.53866860  0.37873052  0.14332582     0.05400
C2111       C  0.58936842  0.40174817  0.16297117     0.27800
C2112       C  0.58778558  0.42170825  0.17157298    -0.12700
C2113       C  0.60544794  0.43443924  0.17290691     0.05900
C2114       C  0.62480578  0.42724837  0.16571228    -0.08600
C2115       C  0.62645692  0.40717240  0.15738372     0.06700
C2116       C  0.60877000  0.39443063  0.15602954    -0.13000
Br2117     Br  0.56457959  0.40833627  0.12166204    -0.05100
Br2118     Br  0.54142199  0.34345554  0.19833196     0.00600
Br2119     Br  0.60297158  0.46207196  0.18387998     0.01000
Br2120     Br  0.61100123  0.36692415  0.14472288    -0.03400
Br2121     Br  0.51954138  0.38299644  0.12070390     0.01100
Br2122     Br  0.58333024  0.37338508  0.20166500    -0.02700
Br2123     Br  0.56129797  0.43156639  0.18142839    -0.03500
Br2124     Br  0.65304647  0.39692341  0.14840141     0.00400
C2125       C  0.51683352  0.21183454  0.28526210     0.01800
C2126       C  0.49681312  0.21267818  0.27616335     0.04700
C2127       C  0.49223738  0.22757919  0.26093393    -0.11400
C2128       C  0.50762188  0.24156534  0.25440645     0.24000
C2129       C  0.52777031  0.24029098  0.26284171    -0.12000
C2130       C  0.53238327  0.22553438  0.27822148     0.05400
C2131       C  0.50245898  0.25779553  0.23888136     0.27800
C2132       C  0.50255076  0.25311886  0.21756973    -0.12700
C2133       C  0.49637818  0.26811486  0.20300017     0.05900
C2134       C  0.49091849  0.28828373  0.20960667    -0.08600
C2135       C  0.49175400  0.29315012  0.23094362     0.06700
C2136       C  0.49714398  0.27785935  0.24550803    -0.13000
Br2137     Br  0.54910682  0.25865689  0.25291841    -0.05100
Br2138     Br  0.47520596  0.19389397  0.28472996     0.00600
Br2139     Br  0.49440632  0.26036796  0.17413051     0.01000
Br2140     Br  0.49747133  0.28435856  0.27468035    -0.03400
Br2141     Br  0.56047544  0.22326782  0.28844160     0.01100
Br2142     Br  0.46475149  0.22902917  0.24899690    -0.02700
Br2143     Br  0.51149935  0.22615125  0.20840674    -0.03500
Br2144     Br  0.48693090  0.32106430  0.24032022     0.00400
C2145       C  0.38318537  0.21493239  0.06453938     0.01800
C2146       C  0.38563246  0.23485041  0.05601898     0.04700
C2147       C  0.39765679  0.24985902  0.06644791    -0.11400
C2148       C  0.40738638  0.24506252  0.08541482     0.24000
C2149       C  0.40528377  0.22506703  0.09374212    -0.12000
C2150       C  0.39307575  0.21012733  0.08347242     0.05400
C2151       C  0.41876192  0.26131412  0.09732176     0.27800
C2152       C  0.44007867  0.26476889  0.09396458    -0.12700
C2153       C  0.45101668  0.27935352  0.10609693     0.05900
C2154       C  0.44064709  0.29067953  0.12181099    -0.08600
C2155       C  0.41909961  0.28721994  0.12493627     0.06700
C2156       C  0.40827549  0.27278934  0.11260356    -0.13000
Br2157     Br  0.41889765  0.21837778  0.11952553    -0.05100
Br2158     Br  0.37106472  0.24218183  0.03095785     0.00600
Br2159     Br  0.48053539  0.28241649  0.10189782     0.01000
Br2160     Br  0.37883043  0.26863920  0.11649346    -0.03400
Br2161     Br  0.38992375  0.18303735  0.09543788     0.01100
Br2162     Br  0.40021198  0.27732201  0.05525797    -0.02700
Br2163     Br  0.45427013  0.24910236  0.07284090    -0.03500
Br2164     Br  0.40377374  0.30229199  0.14580115     0.00400
C2165       C  0.03185160  0.34266454  0.86051695     0.01800
C2166       C  0.04355127  0.32432378  0.86320796     0.04700
C2167       C  0.06154323  0.32435274  0.87564116    -0.11400
C2168       C  0.06881612  0.34288834  0.88449896     0.24000
C2169       C  0.05798325  0.36145957  0.88075583    -0.12000
C2170       C  0.03938640  0.36133890  0.86912955     0.05400
C2171       C  0.08742186  0.34260959  0.89832410     0.27800
C2172       C  0.08485877  0.34323055  0.92000434    -0.12700
C2173       C  0.10228278  0.34217859  0.93317614     0.05900
C2174       C  0.12244973  0.34047347  0.92481039    -0.08600
C2175       C  0.12504439  0.33970390  0.90313236     0.06700
C2176       C  0.10758780  0.34093920  0.88992503    -0.13000
Br2177     Br  0.06850986  0.38703703  0.89200359    -0.05100
Br2178     Br  0.03585467  0.29916968  0.84895204     0.00600
Br2179     Br  0.09840667  0.34211416  0.96283799     0.01000
Br2180     Br  0.11122124  0.34070804  0.86027018    -0.03400
Br2181     Br  0.02383837  0.38668470  0.86624937     0.01100
Br2182     Br  0.07593823  0.29876156  0.88114980    -0.02700
Br2183     Br  0.05736892  0.34538774  0.93169594    -0.03500
Br2184     Br  0.15253792  0.33775192  0.89150210     0.00400
C2185       C  0.07417739  0.33893850  0.11703541     0.01800
C2186       C  0.09599488  0.34038350  0.11811564     0.04700
C2187       C  0.10783038  0.34077449  0.09979937    -0.11400
C2188       C  0.09789811  0.33982020  0.08034058     0.24000
C2189       C  0.07610648  0.33815335  0.07926453    -0.12000
C2190       C  0.06424949  0.33788416  0.09756094     0.05400
C2191       C  0.11043151  0.34025366  0.06102879     0.27800
C2192       C  0.11398186  0.35904669  0.05069195    -0.12700
C2193       C  0.12612383  0.35948338  0.03255738     0.05900
C2194       C  0.13522280  0.34111462  0.02487566    -0.08600
C2195       C  0.13151872  0.32223733  0.03533121     0.06700
C2196       C  0.11890813  0.32183777  0.05312496    -0.13000
Br2197     Br  0.06263218  0.33572020  0.05266455    -0.05100
Br2198     Br  0.10959186  0.34289299  0.14465567     0.00600
Br2199     Br  0.12908070  0.38517257  0.01772882     0.01000
Br2200     Br  0.11295877  0.29601004  0.06678800    -0.03400
Br2201     Br  0.03440856  0.33536065  0.09594709     0.01100
Br2202     Br  0.13770602  0.34247366  0.10125845    -0.02700
Br2203     Br  0.10192872  0.38418024  0.06138455    -0.03500
Br2204     Br  0.14445835  0.29684219  0.02627770     0.00400
C2205       C  0.21570611  0.29198177  0.99084002     0.01800
C2206       C  0.20952527  0.27110077  0.99220422     0.04700
C2207       C  0.22369217  0.25600637  0.99914122    -0.11400
C2208       C  0.24412499  0.26164968  0.00454358     0.24000
C2209       C  0.25021114  0.28248580  0.00360024    -0.12000
C2210       C  0.23597581  0.29765741  0.99715311     0.05400
C2211       C  0.25954416  0.24563416  0.01043945     0.27800
C2212       C  0.26432417  0.24207955  0.03144053    -0.12700
C2213       C  0.27976634  0.22763878  0.03685559     0.05900
C2214       C  0.29020696  0.21639192  0.02128094    -0.08600
C2215       C  0.28528990  0.21992282  0.00023798     0.06700
C2216       C  0.27008144  0.23458169  0.99486876    -0.13000
Br2217     Br  0.27836631  0.29009586  0.01064711    -0.05100
Br2218     Br  0.18131421  0.26325192  0.98590355     0.00600
Br2219     Br  0.28768151  0.22448914  0.06551883     0.01000
Br2220     Br  0.26379232  0.23988219  0.96610695    -0.03400
Br2221     Br  0.24474939  0.32612871  0.99669287     0.01100
Br2222     Br  0.21527697  0.22750034  0.00128681    -0.02700
Br2223     Br  0.24991027  0.25733201  0.05272041    -0.03500
Br2224     Br  0.29887187  0.20433802  0.97860087     0.00400
C2225       C  0.39046956  0.43192930  0.83789656     0.01800
C2226       C  0.39932398  0.42423011  0.81929741     0.04700
C2227       C  0.41805223  0.41287895  0.81980864    -0.11400
C2228       C  0.42760421  0.40814634  0.83883922     0.24000
C2229       C  0.41894615  0.41563351  0.85736173    -0.12000
C2230       C  0.40069076  0.42768417  0.85697559     0.05400
C2231       C  0.44643689  0.39474228  0.83952093     0.27800
C2232       C  0.44429213  0.37311714  0.84089173    -0.12700
C2233       C  0.46203442  0.36034812  0.84168708     0.05900
C2234       C  0.48207588  0.36917884  0.84134881    -0.08600
C2235       C  0.48417123  0.39087458  0.84044426     0.06700
C2236       C  0.46642359  0.40357867  0.83933704    -0.13000
Br2237     Br  0.43246540  0.40935167  0.88334363    -0.05100
Br2238     Br  0.38539313  0.42766924  0.79301492     0.00600
Br2239     Br  0.45874716  0.33074224  0.84201773     0.01000
Br2240     Br  0.46940571  0.43313726  0.83737124    -0.03400
Br2241     Br  0.39068426  0.43880879  0.88293083     0.01100
Br2242     Br  0.43094899  0.40386789  0.79438224    -0.02700
Br2243     Br  0.41689837  0.36107133  0.84142420    -0.03500
Br2244     Br  0.51140820  0.40331332  0.84159385     0.00400
C2245       C  0.36451270  0.53020148  0.84950344     0.01800
C2246       C  0.38284621  0.53138162  0.86145212     0.04700
C2247       C  0.39523524  0.54931332  0.86076547    -0.11400
C2248       C  0.38909759  0.56628654  0.84853269     0.24000
C2249       C  0.37013653  0.56557916  0.83765697    -0.12000
C2250       C  0.35794031  0.54755864  0.83802919     0.05400
C2251       C  0.40277397  0.58470237  0.84668836     0.27800
C2252       C  0.40215372  0.60035457  0.86184174    -0.12700
C2253       C  0.41534183  0.61763135  0.86025911     0.05900
C2254       C  0.42911887  0.61945568  0.84333772    -0.08600
C2255       C  0.42944355  0.60390333  0.82796895     0.06700
C2256       C  0.41627782  0.58661750  0.82963664    -0.13000
Br2257     Br  0.36118911  0.58924752  0.82187848    -0.05100
Br2258     Br  0.39174363  0.50800592  0.87770935     0.00600
Br2259     Br  0.41384031  0.63913767  0.88095616     0.01000
Br2260     Br  0.41673739  0.56540963  0.80858747    -0.03400
Br2261     Br  0.33200944  0.54676501  0.82299312     0.01100
Br2262     Br  0.42111976  0.55036021  0.87582178    -0.02700
Br2263     Br  0.38287335  0.59814742  0.88456774    -0.03500
Br2264     Br  0.44879339  0.60552110  0.80522032     0.00400
C2265       C  0.29128133  0.44028890  0.88181099     0.01800
C2266       C  0.29423467  0.44120311  0.90353386     0.04700
C2267       C  0.28049648  0.43077966  0.91690814    -0.11400
C2268       C  0.26381254  0.41929239  0.90874946     0.24000
C2269       C  0.26107609  0.41794422  0.88715737    -0.12000
C2270       C  0.27452869  0.42856778  0.87372145     0.05400
C2271       C  0.24945866  0.40785482  0.92265062     0.27800
C2272       C  0.25438947  0.38759776  0.92870316    -0.12700
C2273       C  0.23959630  0.37548560  0.93909151     0.05900
C2274       C  0.21988647  0.38374636  0.94417554    -0.08600
C2275       C  0.21554392  0.40461913  0.93939072     0.06700
C2276       C  0.23016788  0.41648464  0.92829956    -0.13000
Br2277     Br  0.23908014  0.40088448  0.87604975    -0.05100
Br2278     Br  0.31782815  0.45550951  0.91521285     0.00600
Br2279     Br  0.24665634  0.34744614  0.94619097     0.01000
Br2280     Br  0.22353069  0.44426782  0.91977655    -0.03400
Br2281     Br  0.26910999  0.42746823  0.84428675     0.01100
Br2282     Br  0.28490641  0.43146673  0.94645835    -0.02700
Br2283     Br  0.28131392  0.37624967  0.92203968    -0.03500
Br2284     Br  0.18914194  0.41670649  0.94661712     0.00400
C2285       C  0.85469858  0.53006335  0.63898878     0.01800
C2286       C  0.85600764  0.54876769  0.65013339     0.04700
C2287       C  0.85677930  0.56765706  0.63940892    -0.11400
C2288       C  0.85702973  0.56776911  0.61759361     0.24000
C2289       C  0.85718854  0.54901085  0.60652954    -0.12000
C2290       C  0.85563412  0.53020263  0.61717550     0.05400
C2291       C  0.85564438  0.58745807  0.60604954     0.27800
C2292       C  0.83614665  0.59442500  0.59905536    -0.12700
C2293       C  0.83478201  0.61176860  0.58606307     0.05900
C2294       C  0.85296210  0.62257484  0.58039951    -0.08600
C2295       C  0.87246768  0.61588690  0.58803193     0.06700
C2296       C  0.87377055  0.59827625  0.60069800    -0.13000
Br2297     Br  0.85898171  0.54922627  0.57669093    -0.05100
Br2298     Br  0.85536919  0.54862903  0.67998930     0.00600
Br2299     Br  0.80810403  0.61928587  0.57460014     0.01000
Br2300     Br  0.90041455  0.58845681  0.61028007    -0.03400
Br2301     Br  0.85474003  0.50459235  0.60180021     0.01100
Br2302     Br  0.85642417  0.59341723  0.65444277    -0.02700
Br2303     Br  0.81134678  0.57957974  0.60677101    -0.03500
Br2304     Br  0.89756589  0.63081550  0.58156146     0.00400
C2305       C  0.85059585  0.63907029  0.47902861     0.01800
C2306       C  0.83602498  0.64361215  0.46334719     0.04700
C2307       C  0.83505475  0.63127299  0.44539752    -0.11400
C2308       C  0.84817903  0.61396672  0.44334191     0.24000
C2309       C  0.86280813  0.60948017  0.45898049    -0.12000
C2310       C  0.86419094  0.62215865  0.47667969     0.05400
C2311       C  0.84648602  0.60043425  0.42478211     0.27800
C2312       C  0.83131541  0.58477272  0.42397986    -0.12700
C2313       C  0.82941548  0.57223348  0.40621068     0.05900
C2314       C  0.84334403  0.57467189  0.38952373    -0.08600
C2315       C  0.85875002  0.59016056  0.39053596     0.06700
C2316       C  0.86000369  0.60327656  0.40791901    -0.13000
Br2317     Br  0.88055919  0.58562098  0.45633767    -0.05100
Br2318     Br  0.81761108  0.66698604  0.46630398     0.00600
Br2319     Br  0.80833122  0.55107250  0.40526721     0.01000
Br2320     Br  0.88014329  0.62531691  0.40871073    -0.03400
Br2321     Br  0.88391823  0.61567576  0.49825693     0.01100
Br2322     Br  0.81584988  0.63807022  0.42348315    -0.02700
Br2323     Br  0.81362081  0.58012498  0.44760114    -0.03500
Br2324     Br  0.87790518  0.59385819  0.36792386     0.00400
C2325       C  0.79719131  0.71402910  0.52276088     0.01800
C2326       C  0.77732974  0.70577210  0.51836851     0.04700
C2327       C  0.76111395  0.71888763  0.51184604    -0.11400
C2328       C  0.76459222  0.74025609  0.50979832     0.24000
C2329       C  0.78428395  0.74853422  0.51436392    -0.12000
C2330       C  0.80050150  0.73553025  0.52092626     0.05400
C2331       C  0.74753660  0.75422672  0.50312887     0.27800
C2332       C  0.74541037  0.75963201  0.48212152    -0.12700
C2333       C  0.73038932  0.77425993  0.47603478     0.05900
C2334       C  0.71706109  0.78325886  0.49091482    -0.08600
C2335       C  0.71893391  0.77737029  0.51192988     0.06700
C2336       C  0.73429081  0.76309992  0.51800816    -0.13000
Br2337     Br  0.78898885  0.77782042  0.51141723    -0.05100
Br2338     Br  0.77239947  0.67641282  0.52013349     0.00600
Br2339     Br  0.72963710  0.78335059  0.44760046     0.01000
Br2340     Br  0.73796050  0.75628147  0.54688800    -0.03400
Br2341     Br  0.82695550  0.74756758  0.52829998     0.01100
Br2342     Br  0.73418432  0.70763745  0.50516564    -0.02700
Br2343     Br  0.76388737  0.74764143  0.46188760    -0.03500
Br2344     Br  0.70035378  0.78851097  0.53254724     0.00400
C2345       C  0.93092107  0.88708667  0.66946729     0.01800
C2346       C  0.91558087  0.88930064  0.65395644     0.04700
C2347       C  0.90260152  0.90680830  0.65374173    -0.11400
C2348       C  0.90522259  0.92252629  0.66863862     0.24000
C2349       C  0.92049766  0.92036494  0.68416048    -0.12000
C2350       C  0.93311384  0.90257150  0.68476782     0.05400
C2351       C  0.89202892  0.94139817  0.66774764     0.27800
C2352       C  0.89636146  0.95700190  0.65317776    -0.12700
C2353       C  0.88343301  0.97451533  0.65176477     0.05900
C2354       C  0.86653233  0.97688079  0.66544969    -0.08600
C2355       C  0.86223826  0.96126627  0.68004903     0.06700
C2356       C  0.87485442  0.94351834  0.68108397    -0.13000
Br2357     Br  0.92453895  0.94216766  0.70418904    -0.05100
Br2358     Br  0.91185043  0.86815567  0.63318764     0.00600
Br2359     Br  0.88941232  0.99556198  0.63154443     0.01000
Br2360     Br  0.86868589  0.92204617  0.70080762    -0.03400
Br2361     Br  0.95421588  0.90012785  0.70590980     0.01100
Br2362     Br  0.88111400  0.90936834  0.63300587    -0.02700
Br2363     Br  0.92046766  0.95459539  0.63560735    -0.03500
Br2364     Br  0.83850824  0.96377357  0.69812164     0.00400
C2365       C  0.03365283  0.87036562  0.66337138     0.01800
C2366       C  0.03980685  0.88008218  0.64477845     0.04700
C2367       C  0.05838106  0.89158476  0.64404431    -0.11400
C2368       C  0.07058808  0.89412014  0.66201208     0.24000
C2369       C  0.06449300  0.88451817  0.68058761    -0.12000
C2370       C  0.04626003  0.87250827  0.68124378     0.05400
C2371       C  0.08958690  0.90725975  0.66152505     0.27800
C2372       C  0.10944149  0.89809730  0.66070749    -0.12700
C2373       C  0.12739340  0.91052400  0.66127727     0.05900
C2374       C  0.12561913  0.93223334  0.66134736    -0.08600
C2375       C  0.10573216  0.94141973  0.66148440     0.06700
C2376       C  0.08780282  0.92896609  0.66217929    -0.13000
Br2377     Br  0.08115775  0.88803346  0.70524813    -0.05100
Br2378     Br  0.02214614  0.87912391  0.62060665     0.00600
Br2379     Br  0.15441122  0.89774071  0.66149741     0.01000
Br2380     Br  0.06073744  0.94158129  0.66450391    -0.03400
Br2381     Br  0.03921772  0.85842843  0.70661917     0.01100
Br2382     Br  0.06721703  0.90399461  0.61838960    -0.02700
Br2383     Br  0.11196214  0.86849507  0.65835126    -0.03500
Br2384     Br  0.10300926  0.97111373  0.66137887     0.00400
C2385       C  0.94624640  0.79340742  0.62297471     0.01800
C2386       C  0.95856836  0.77990752  0.61086383     0.04700
C2387       C  0.94908935  0.76544800  0.59751581    -0.11400
C2388       C  0.92730551  0.76424205  0.59626331     0.24000
C2389       C  0.91495628  0.77776988  0.60808864    -0.12000
C2390       C  0.92432987  0.79225475  0.62144365     0.05400
C2391       C  0.91724647  0.74748804  0.58411994     0.27800
C2392       C  0.91000132  0.75108483  0.56383062    -0.12700
C2393       C  0.89871392  0.73566047  0.55326322     0.05900
C2394       C  0.89434368  0.71674273  0.56314714    -0.08600
C2395       C  0.90235970  0.71290751  0.58313023     0.06700
C2396       C  0.91387450  0.72818620  0.59351415    -0.13000
Br2397     Br  0.88504761  0.77588798  0.60635383    -0.05100
Br2398     Br  0.98839427  0.77966045  0.61383651     0.00600
Br2399     Br  0.88801103  0.74108176  0.52587262     0.01000
Br2400     Br  0.92452672  0.72299902  0.62099077    -0.03400
Br2401     Br  0.90679338  0.81045522  0.63743543     0.01100
Br2402     Br  0.96580667  0.74652814  0.58150955    -0.02700
Br2403     Br  0.91478442  0.77749043  0.55097265    -0.03500
Br2404     Br  0.89772074  0.68663903  0.59637016     0.00400
C2405       C  0.15819583  0.57785641  0.62846008     0.01800
C2406       C  0.13886792  0.58528353  0.62098825     0.04700
C2407       C  0.13810071  0.59848392  0.60372401    -0.11400
C2408       C  0.15655170  0.60548061  0.59451773     0.24000
C2409       C  0.17587295  0.59934420  0.60271265    -0.12000
C2410       C  0.17676456  0.58514292  0.61924685     0.05400
C2411       C  0.15548745  0.61789921  0.57519391     0.27800
C2412       C  0.15602397  0.60775818  0.55589719    -0.12700
C2413       C  0.15431672  0.61913941  0.53745964     0.05900
C2414       C  0.15210968  0.64084792  0.53814725    -0.08600
C2415       C  0.15138391  0.65101198  0.55752215     0.06700
C2416       C  0.15305884  0.63952387  0.57600306    -0.13000
Br2417     Br  0.20108319  0.61019243  0.59081967    -0.05100
Br2418     Br  0.11316744  0.57836392  0.63470246     0.00600
Br2419     Br  0.15437229  0.60469693  0.51122753     0.01000
Br2420     Br  0.15238048  0.65329097  0.60251284    -0.03400
Br2421     Br  0.20351169  0.57465205  0.62780111     0.01100
Br2422     Br  0.11168315  0.60652638  0.59203977    -0.02700
Br2423     Br  0.15903627  0.57810746  0.55481623    -0.03500
Br2424     Br  0.14940883  0.68071420  0.55886636     0.00400
C2425       C  0.16211861  0.38707144  0.57725239     0.01800
C2426       C  0.16306008  0.38372508  0.59880348     0.04700
C2427       C  0.15906163  0.40008330  0.61259526    -0.11400
C2428       C  0.15533455  0.42009601  0.60493853     0.24000
C2429       C  0.15484457  0.42357885  0.58341575    -0.12000
C2430       C  0.15814316  0.40708202  0.56959083     0.05400
C2431       C  0.15449260  0.43782531  0.61948637     0.27800
C2432       C  0.13537515  0.44655587  0.62546644    -0.12700
C2433       C  0.13497506  0.46385188  0.63879383     0.05900
C2434       C  0.15383128  0.47282690  0.64566521    -0.08600
C2435       C  0.17288693  0.46319495  0.64049125     0.06700
C2436       C  0.17318108  0.44595202  0.62728748    -0.13000
Br2437     Br  0.14996082  0.45105710  0.57295337    -0.05100
Br2438     Br  0.16998305  0.35686442  0.60957760     0.00600
Br2439     Br  0.10850846  0.47524363  0.64694738     0.01000
Br2440     Br  0.19935972  0.43367833  0.61928037    -0.03400
Br2441     Br  0.15881975  0.41222157  0.54015384     0.01100
Br2442     Br  0.15855773  0.39521042  0.64206669    -0.02700
Br2443     Br  0.10984369  0.43516329  0.61469478    -0.03500
Br2444     Br  0.19882528  0.47269687  0.65222009     0.00400
C2445       C  0.20847976  0.51374165  0.71937265     0.01800
C2446       C  0.22143667  0.52855753  0.72887995     0.04700
C2447       C  0.23719797  0.52223911  0.74265370    -0.11400
C2448       C  0.24013737  0.50109705  0.74696315     0.24000
C2449       C  0.22737736  0.48627446  0.73727752    -0.12000
C2450       C  0.21151967  0.49255560  0.72361748     0.05400
C2451       C  0.25630012  0.49449425  0.76208897     0.27800
C2452       C  0.27648514  0.48954049  0.75531981    -0.12700
C2453       C  0.29196663  0.48392562  0.76975431     0.05900
C2454       C  0.28727404  0.48310983  0.79112973    -0.08600
C2455       C  0.26675943  0.48745429  0.79774456     0.06700
C2456       C  0.25141882  0.49320870  0.78328313    -0.13000
Br2457     Br  0.23173470  0.45732286  0.74278975    -0.05100
Br2458     Br  0.21678950  0.55761260  0.72407559     0.00600
Br2459     Br  0.31978694  0.47854746  0.76010784     0.01000
Br2460     Br  0.22354868  0.49937146  0.79242320    -0.03400
Br2461     Br  0.19439078  0.47195748  0.71029882     0.01100
Br2462     Br  0.25465602  0.54254090  0.75590759    -0.02700
Br2463     Br  0.28281591  0.49072014  0.72615692    -0.03500
Br2464     Br  0.25911714  0.48467350  0.82653774     0.00400
C2465       C  0.06852780  0.65888210  0.88742178     0.01800
C2466       C  0.07305182  0.67591206  0.90043707     0.04700
C2467       C  0.08686217  0.67360637  0.91718599    -0.11400
C2468       C  0.09562510  0.65418193  0.92152066     0.24000
C2469       C  0.09071120  0.63703714  0.90905648    -0.12000
C2470       C  0.07739715  0.63935787  0.89191075     0.05400
C2471       C  0.10957841  0.65169642  0.93960497     0.27800
C2472       C  0.13120535  0.65407826  0.93729651    -0.12700
C2473       C  0.14432774  0.65251900  0.95467036     0.05900
C2474       C  0.13577332  0.64877641  0.97436247    -0.08600
C2475       C  0.11419984  0.64590846  0.97657499     0.06700
C2476       C  0.10111321  0.64738178  0.95921355    -0.13000
Br2477     Br  0.10221794  0.61032008  0.91575771    -0.05100
Br2478     Br  0.05917595  0.70208534  0.89662815     0.00600
Br2479     Br  0.17383602  0.65673024  0.95173057     0.01000
Br2480     Br  0.07150300  0.64406450  0.96229065    -0.03400
Br2481     Br  0.07213424  0.61569082  0.87440785     0.01100
Br2482     Br  0.09372606  0.69698585  0.93450724    -0.02700
Br2483     Br  0.14264887  0.66030361  0.91045129    -0.03500
Br2484     Br  0.10263022  0.63966695  0.00341324     0.00400
C2485       C  0.96859765  0.66381804  0.87030395     0.01800
C2486       C  0.95990065  0.64478279  0.87665950     0.04700
C2487       C  0.94196811  0.64448818  0.88918563    -0.11400
C2488       C  0.93320531  0.66313970  0.89637814     0.24000
C2489       C  0.94217492  0.68208620  0.89059836    -0.12000
C2490       C  0.95937043  0.68247957  0.87718663     0.05400
C2491       C  0.91472516  0.66298441  0.91023568     0.27800
C2492       C  0.89519526  0.66948338  0.90270801    -0.12700
C2493       C  0.87805256  0.67079622  0.91617631     0.05900
C2494       C  0.87997534  0.66425105  0.93692568    -0.08600
C2495       C  0.89935394  0.65702445  0.94424733     0.06700
C2496       C  0.91681738  0.65714775  0.93116451    -0.13000
Br2497     Br  0.93114069  0.70762325  0.90161153    -0.05100
Br2498     Br  0.97331213  0.61896080  0.86985729     0.00600
Br2499     Br  0.85181205  0.68095093  0.90587763     0.01000
Br2500     Br  0.94381662  0.65008194  0.94214928    -0.03400
Br2501     Br  0.96947425  0.70890478  0.86783345     0.01100
Br2502     Br  0.92947839  0.61846975  0.89676711    -0.02700
Br2503     Br  0.89192730  0.67641162  0.87381165    -0.03500
Br2504     Br  0.90232012  0.64751047  0.97244682     0.00400
C2505       C  0.01722558  0.71900928  0.79452035     0.01800
C2506       C  0.03289118  0.72531776  0.78065053     0.04700
C2507       C  0.02868833  0.74081951  0.76590453    -0.11400
C2508       C  0.00897924  0.75033517  0.76529252     0.24000
C2509       C  0.99371978  0.74470626  0.77980260    -0.12000
C2510       C  0.99768680  0.72882812  0.79408244     0.05400
C2511       C  0.00363537  0.76514733  0.74854212     0.27800
C2512       C  0.00434469  0.78659273  0.75219835    -0.12700
C2513       C  0.99792942  0.80048304  0.73668111     0.05900
C2514       C  0.99150940  0.79300073  0.71713797    -0.08600
C2515       C  0.99103519  0.77150287  0.71343054     0.06700
C2516       C  0.99668043  0.75763633  0.72923666    -0.13000
Br2517     Br  0.96717778  0.75855819  0.77979584    -0.05100
Br2518     Br  0.05957175  0.71171667  0.78083157     0.00600
Br2519     Br  0.99847174  0.82978767  0.74212080     0.01000
Br2520     Br  0.99415456  0.72824159  0.72481520    -0.03400
Br2521     Br  0.97616379  0.72038439  0.81292555     0.01100
Br2522     Br  0.04961000  0.74863396  0.74606979    -0.02700
Br2523     Br  0.01401537  0.79683242  0.77857391    -0.03500
Br2524     Br  0.98164367  0.76088710  0.68705165     0.00400
C2525       C  0.05575101  0.62216383  0.79181754     0.01800
C2526       C  0.07724917  0.61808552  0.79401849     0.04700
C2527       C  0.08775762  0.60619355  0.77908332    -0.11400
C2528       C  0.07679686  0.59754162  0.76231519     0.24000
C2529       C  0.05532021  0.60111680  0.76027471    -0.12000
C2530       C  0.04485915  0.61368407  0.77476287     0.05400
C2531       C  0.08815648  0.58527713  0.74649660     0.27800
C2532       C  0.09728861  0.59532063  0.72948274    -0.12700
C2533       C  0.10944998  0.58406871  0.71533101     0.05900
C2534       C  0.11266779  0.56268904  0.71818424    -0.08600
C2535       C  0.10298830  0.55251151  0.73488865     0.06700
C2536       C  0.09080984  0.56382945  0.74905333    -0.13000
Br2537     Br  0.04050708  0.58925535  0.73713900    -0.05100
Br2538     Br  0.09250602  0.62817046  0.81776841     0.00600
Br2539     Br  0.12142060  0.59799784  0.69179002     0.01000
Br2540     Br  0.07847615  0.55025877  0.77257125    -0.03400
Br2541     Br  0.01610393  0.62065082  0.77000557     0.01100
Br2542     Br  0.11743334  0.60225540  0.78109169    -0.02700
Br2543     Br  0.09371931  0.62471242  0.72608211    -0.03500
Br2544     Br  0.10756296  0.52340604  0.73931312     0.00400
loop_ 
_geom_bond_atom_site_label_1 
_geom_bond_atom_site_label_2 
_geom_bond_distance 
_geom_bond_site_symmetry_2 
_ccdc_geom_bond_type 
O1            C4   1.267       .  A
O1           Cd6   2.491       .  S
C2           O11   1.265       .  A
C2            O7   1.269       .  A
C2         C2465   1.484       .  S
O3            C9   1.270       .  A
O3           Cd6   2.497   1_655  S
C4           O12   1.265       .  A
C4         C2505   1.479       .  S
C5           O10   1.269       .  A
C5            O8   1.262       .  A
C5         C2525   1.486       .  S
Cd6          O13   2.445       .  S
Cd6          O12   2.451       .  S
Cd6          O11   2.445       .  S
Cd6           O7   2.469       .  S
Cd6          O10   2.505       .  S
Cd6           O8   2.436       .  S
C9           O13   1.265   1_655  A
C9         C2485   1.491       .  S
O14          C17   1.267       .  A
O14         Cd19   2.483       .  S
C15          O24   1.265       .  A
C15          O20   1.268       .  A
C15        C2405   1.492       .  S
O16          C22   1.268       .  A
O16         Cd19   2.497       .  S
C17          O25   1.264       .  A
C17        C2445   1.481       .  S
C18          O23   1.268       .  A
C18          O21   1.264       .  A
C18        C2534   1.479       .  S
Cd19         O26   2.425       .  S
Cd19         O25   2.453       .  S
Cd19         O24   2.453       .  S
Cd19         O20   2.495       .  S
Cd19         O23   2.496       .  S
Cd19         O21   2.435       .  S
C22          O26   1.264       .  A
C22        C2434   1.486       .  S
O27          C30   1.268       .  A
O27         Cd32   2.480       .  S
C28          O37   1.265       .  A
C28          O33   1.268       .  A
C28        C2345   1.483       .  S
O29          C35   1.269       .  A
O29         Cd32   2.496   1_455  S
C30          O38   1.265       .  A
C30        C2514   1.481       .  S
C31          O36   1.268       .  A
C31          O34   1.265       .  A
C31        C2385   1.488       .  S
Cd32         O39   2.458   1_655  S
Cd32         O38   2.458       .  S
Cd32         O37   2.458       .  S
Cd32         O33   2.485       .  S
Cd32         O36   2.490       .  S
Cd32         O34   2.460       .  S
C35          O39   1.264       .  A
C35        C2365   1.489       .  S
O40          C43   1.268       .  A
O40         Cd45   2.481       .  S
C41          O50   1.264       .  A
C41          O46   1.267       .  A
C41        C2294   1.482       .  S
O42          C48   1.269       .  A
O42         Cd45   2.476       .  S
C43          O51   1.265       .  A
C43        C2325   1.482       .  S
C44          O49   1.268       .  A
C44          O47   1.263       .  A
C44        C2394   1.478       .  S
Cd45         O52   2.437       .  S
Cd45         O51   2.438       .  S
Cd45         O50   2.445       .  S
Cd45         O46   2.469       .  S
Cd45         O49   2.492       .  S
Cd45         O47   2.434       .  S
C48          O52   1.265       .  A
C48        C2305   1.476       .  S
O53          C56   1.270       .  A
O53         Cd58   2.510       .  S
C54          O63   1.262       .  A
C54          O59   1.267       .  A
C54        C2225   1.500       .  S
O55          C61   1.269       .  A
O55         Cd58   2.505       .  S
C56          O64   1.263       .  A
C56        C2454   1.489       .  S
C57          O62   1.270       .  A
C57          O60   1.266       .  A
C57        C2265   1.490       .  S
Cd58         O65   2.435       .  S
Cd58         O64   2.444       .  S
Cd58         O63   2.469       .  S
Cd58         O59   2.508       .  S
Cd58         O62   2.481       .  S
Cd58         O60   2.448       .  S
C61          O65   1.263       .  A
C61        C2245   1.480       .  S
O66          C69   1.270       .  A
O66         Cd71   2.497       .  S
C67          O76   1.265       .  A
C67          O72   1.270       .  A
C67        C2174   1.483       .  S
O68          C74   1.271       .  A
O68         Cd71   2.480   1_554  S
C69          O77   1.263       .  A
C69        C2205   1.484       .  S
C70          O75   1.269       .  A
C70          O73   1.264       .  A
C70        C2274   1.490       .  S
Cd71         O78   2.442       .  S
Cd71         O77   2.442       .  S
Cd71         O76   2.448       .  S
Cd71         O72   2.501       .  S
Cd71         O75   2.521       .  S
Cd71         O73   2.446       .  S
C74          O78   1.265   1_554  A
C74        C2194   1.488       .  S
O79          C82   1.271       .  A
O79         Cd84   2.488       .  S
C80          O89   1.264       .  A
C80          O85   1.269       .  A
C80        C2085   1.485       .  S
O81          C87   1.271       .  A
O81         Cd84   2.497       .  S
C82          O90   1.265       .  A
C82        C2134   1.489       .  S
C83          O88   1.271       .  A
C83          O86   1.264       .  A
C83        C2154   1.497       .  S
Cd84         O91   2.435       .  S
Cd84         O90   2.445       .  S
Cd84         O89   2.466       .  S
Cd84         O85   2.502       .  S
Cd84         O88   2.505       .  S
Cd84         O86   2.449       .  S
C87          O91   1.264       .  A
C87        C2105   1.483       .  S
O92          C95   1.270       .  A
O92         Cd97   2.476       .  S
C93         O102   1.265       .  A
C93          O98   1.269       .  A
C93        C2045   1.482       .  S
O94         C100   1.272   1_554  A
O94         Cd97   2.501       .  S
C95         O103   1.265       .  A
C95        C2214   1.480       .  S
C96         O101   1.270       .  A
C96          O99   1.264       .  A
C96        C2145   1.487       .  S
Cd97        O104   2.465       .  S
Cd97        O103   2.441       .  S
Cd97        O102   2.453       .  S
Cd97         O98   2.493       .  S
Cd97        O101   2.510       .  S
Cd97         O99   2.462       .  S
C100        O104   1.264   1_556  A
C100       C2074   1.498       .  S
O105        C108   1.270       .  A
O105       Cd110   2.501       .  S
C106        O115   1.263       .  A
C106        O111   1.269       .  A
C106       C2334   1.486       .  S
O107        C113   1.267       .  A
O107       Cd110   2.480       .  S
C108        O116   1.265       .  A
C108       C1985   1.492       .  S
C109        O114   1.268       .  A
C109        O112   1.265       .  A
C109       C2005   1.478       .  S
Cd110       O117   2.478       .  S
Cd110       O116   2.459       .  S
Cd110       O115   2.458       .  S
Cd110       O111   2.502       .  S
Cd110       O114   2.488       .  S
Cd110       O112   2.441       .  S
C113        O117   1.265       .  A
C113       C2025   1.484       .  S
O118        C121   1.269       .  A
O118       Cd123   2.482       .  S
C119        O128   1.266       .  A
C119        O124   1.270       .  A
C119       C1925   1.478       .  S
O120        C126   1.271       .  A
O120       Cd123   2.495   1_545  S
C121        O129   1.264       .  A
C121       C1974   1.480       .  S
C122        O127   1.270       .  A
C122        O125   1.264       .  A
C122       C2034   1.479       .  S
Cd123       O130   2.423       .  S
Cd123       O129   2.437       .  S
Cd123       O128   2.436       .  S
Cd123       O124   2.482       .  S
Cd123       O127   2.504       .  S
Cd123       O125   2.421       .  S
C126        O130   1.263   1_545  A
C126       C1945   1.488       .  S
O131        C134   1.268       .  A
O131       Cd136   2.471       .  S
C132        O141   1.263       .  A
C132        O137   1.268       .  A
C132       C1965   1.484       .  S
O133        C139   1.268       .  A
O133       Cd136   2.489       .  S
C134        O142   1.266       .  A
C134       C1874   1.483       .  S
C135        O140   1.267   1_565  A
C135        O138   1.264   1_565  A
C135       C1885   1.494       .  S
Cd136       O143   2.445       .  S
Cd136       O142   2.462       .  S
Cd136       O141   2.437       .  S
Cd136       O137   2.496       .  S
Cd136       O140   2.491       .  S
Cd136       O138   2.457       .  S
C139        O143   1.264       .  A
C139       C1905   1.485       .  S
O144        C147   1.269       .  A
O144       Cd149   2.500       .  S
C145        O154   1.264       .  A
C145        O150   1.270       .  A
C145       C2125   1.490       .  S
O146        C152   1.270       .  A
O146       Cd149   2.488       .  S
C147        O155   1.264       .  A
C147       C1825   1.493       .  S
C148        O153   1.269       .  A
C148        O151   1.266       .  A
C148       C1854   1.484       .  S
Cd149       O156   2.431       .  S
Cd149       O155   2.454       .  S
Cd149       O154   2.455       .  S
Cd149       O150   2.498       .  S
Cd149       O153   2.492       .  S
Cd149       O151   2.456       .  S
C152        O156   1.264       .  A
C152       C1914   1.480       .  S
O157        C160   1.269       .  A
O157       Cd162   2.479       .  S
C158        O167   1.264       .  A
C158        O163   1.269       .  A
C158       C1765   1.488       .  S
O159        C165   1.270       .  A
O159       Cd162   2.503       .  S
C160        O168   1.265       .  A
C160       C1794   1.483       .  S
C161        O166   1.269       .  A
C161        O164   1.264       .  A
C161       C1805   1.491       .  S
Cd162       O169   2.443       .  S
Cd162       O168   2.462       .  S
Cd162       O167   2.452       .  S
Cd162       O163   2.498       .  S
Cd162       O166   2.495       .  S
Cd162       O164   2.456       .  S
C165        O169   1.264       .  A
C165       C2234   1.484       .  S
O170        C173   1.268       .  A
O170       Cd175   2.495       .  S
C171        O180   1.264       .  A
C171        O176   1.268       .  A
C171       C1745   1.486       .  S
O172        C178   1.269       .  A
O172       Cd175   2.486       .  S
C173        O181   1.264       .  A
C173       C1725   1.478       .  S
C174        O179   1.269       .  A
C174        O177   1.263   1_554  A
C174       C1865   1.479       .  S
Cd175       O182   2.432       .  S
Cd175       O181   2.436       .  S
Cd175       O180   2.447       .  S
Cd175       O176   2.475       .  S
Cd175       O179   2.487   1_556  S
Cd175       O177   2.446       .  S
C178        O182   1.265       .  A
C178       C1814   1.476       .  S
O183        C186   1.267       .  A
O183       Cd188   2.504       .  S
C184        O193   1.266       .  A
C184        O189   1.268       .  A
C184       C2114   1.477       .  S
O185        C191   1.268       .  A
O185       Cd188   2.507       .  S
C186        O194   1.263       .  A
C186       C1685   1.486       .  S
C187        O192   1.267       .  A
C187        O190   1.264       .  A
C187       C1705   1.477       .  S
Cd188       O195   2.440       .  S
Cd188       O194   2.459       .  S
Cd188       O193   2.463       .  S
Cd188       O189   2.478       .  S
Cd188       O192   2.495       .  S
Cd188       O190   2.457       .  S
C191        O195   1.262       .  A
C191       C1665   1.490       .  S
O196        C199   1.269       .  A
O196       Cd201   2.476       .  S
C197        O206   1.265       .  A
C197        O202   1.268       .  A
C197       C1634   1.481       .  S
O198        C204   1.271       .  A
O198       Cd201   2.502   1_556  S
C199        O207   1.265       .  A
C199       C1754   1.485       .  S
C200        O205   1.270       .  A
C200        O203   1.262       .  A
C200       C1714   1.493       .  S
Cd201       O208   2.451       .  S
Cd201       O207   2.436       .  S
Cd201       O206   2.457       .  S
Cd201       O202   2.489       .  S
Cd201       O205   2.520       .  S
Cd201       O203   2.442       .  S
C204        O208   1.264   1_556  A
C204       C1654   1.484       .  S
O209        C212   1.267       .  A
O209       Cd214   2.489       .  S
C210        O219   1.264       .  A
C210        O215   1.266       .  A
C210       C1574   1.477       .  S
O211        C217   1.268       .  A
O211       Cd214   2.489       .  S
C212        O220   1.265       .  A
C212       C1785   1.486       .  S
C213        O218   1.267       .  A
C213        O216   1.263       .  A
C213       C1614   1.484       .  S
Cd214       O221   2.447       .  S
Cd214       O220   2.455       .  S
Cd214       O219   2.460       .  S
Cd214       O215   2.475       .  S
Cd214       O218   2.493       .  S
Cd214       O216   2.456       .  S
C217        O221   1.264       .  A
C217       C1585   1.479       .  S
O222        C225   1.267       .  A
O222       Cd227   2.476       .  S
C223        O232   1.264       .  A
C223        O228   1.268       .  A
C223       C1545   1.481       .  S
O224        C230   1.269       .  A
O224       Cd227   2.505       .  S
C225        O233   1.266       .  A
C225       C2065   1.491       .  S
C226        O231   1.269       .  A
C226        O229   1.263   1_565  A
C226       C1525   1.488       .  S
Cd227       O234   2.454       .  S
Cd227       O233   2.488       .  S
Cd227       O232   2.438       .  S
Cd227       O228   2.492       .  S
Cd227       O231   2.509   1_545  S
Cd227       O229   2.444       .  S
C230        O234   1.264       .  A
C230       C1605   1.489       .  S
O235        C238   1.267       .  A
O235       Cd240   2.490       .  S
C236        O245   1.264       .  A
C236        O241   1.266       .  A
C236       C1494   1.480       .  S
O237        C243   1.265       .  A
O237       Cd240   2.494       .  S
C238        O246   1.263       .  A
C238       C1445   1.485       .  S
C239        O244   1.268       .  A
C239        O242   1.265       .  A
C239       C1474   1.477       .  S
Cd240       O247   2.481       .  S
Cd240       O246   2.446       .  S
Cd240       O245   2.462       .  S
Cd240       O241   2.488       .  S
Cd240       O244   2.484       .  S
Cd240       O242   2.447       .  S
C243        O247   1.264       .  A
C243       C1505   1.488       .  S
O248        C251   1.267       .  A
O248       Cd253   2.497       .  S
C249        O258   1.266       .  A
C249        O254   1.268       .  A
C249       C2374   1.482       .  S
O250        C256   1.269       .  A
O250       Cd253   2.508   1_545  S
C251        O259   1.264       .  A
C251       C1554   1.486       .  S
C252        O257   1.269       .  A
C252        O255   1.264       .  A
C252       C1514   1.489       .  S
Cd253       O260   2.447       .  S
Cd253       O259   2.463       .  S
Cd253       O258   2.466       .  S
Cd253       O254   2.484       .  S
Cd253       O257   2.514       .  S
Cd253       O255   2.461       .  S
C256        O260   1.264   1_545  A
C256       C1425   1.493       .  S
O261        C264   1.268       .  A
O261       Cd266   2.483       .  S
C262        O271   1.263       .  A
C262        O267   1.269       .  A
C262       C1385   1.498       .  S
O263        C269   1.270       .  A
O263       Cd266   2.518       .  S
C264        O272   1.265       .  A
C264       C1485   1.483       .  S
C265        O270   1.270       .  A
C265        O268   1.267       .  A
C265       C1405   1.488       .  S
Cd266       O273   2.420       .  S
Cd266       O272   2.471       .  S
Cd266       O271   2.470       .  S
Cd266       O267   2.476       .  S
Cd266       O270   2.497       .  S
Cd266       O268   2.457       .  S
C269        O273   1.261       .  A
C269       C2414   1.482       .  S
O274        C277   1.268       .  A
O274       Cd279   2.520       .  S
C275        O284   1.266       .  A
C275        O280   1.269       .  A
C275       C1345   1.482       .  S
O276        C282   1.267       .  A
O276       Cd279   2.476   1_655  S
C277        O285   1.261       .  A
C277       C1365   1.486       .  S
C278        O283   1.266       .  A
C278        O281   1.263       .  A
C278       C1414   1.485       .  S
Cd279       O286   2.452       .  S
Cd279       O285   2.443       .  S
Cd279       O284   2.460       .  S
Cd279       O280   2.496       .  S
Cd279       O283   2.489       .  S
Cd279       O281   2.447       .  S
C282        O286   1.266   1_655  A
C282       C1934   1.488       .  S
O287        C290   1.268       .  A
O287       Cd292   2.495       .  S
C288        O297   1.266       .  A
C288        O293   1.268       .  A
C288       C2314   1.482       .  S
O289        C295   1.267       .  A
O289       Cd292   2.485       .  S
C290        O298   1.263       .  A
C290       C1694   1.477       .  S
C291        O296   1.268       .  A
C291        O294   1.264       .  A
C291       C1325   1.492       .  S
Cd292       O299   2.460       .  S
Cd292       O298   2.427       .  S
Cd292       O297   2.457       .  S
Cd292       O293   2.483       .  S
Cd292       O296   2.506       .  S
Cd292       O294   2.465       .  S
C295        O299   1.264       .  A
C295       C1305   1.491       .  S
O300        C303   1.267       .  A
O300       Cd305   2.491       .  S
C301        O310   1.266       .  A
C301        O306   1.268       .  A
C301       C1274   1.490       .  S
O302        C308   1.269       .  A
O302       Cd305   2.510   1_455  S
C303        O311   1.264       .  A
C303       C1374   1.480       .  S
C304        O309   1.270       .  A
C304        O307   1.264       .  A
C304       C1334   1.484       .  S
Cd305       O312   2.465       .  S
Cd305       O311   2.447       .  S
Cd305       O310   2.468       .  S
Cd305       O306   2.470       .  S
Cd305       O309   2.516       .  S
Cd305       O307   2.439       .  S
C308        O312   1.264   1_455  A
C308       C1285   1.488       .  S
O313        C316   1.269       .  A
O313       Cd318   2.492       .  S
C314        O323   1.264       .  A
C314        O319   1.269       .  A
C314       C1234   1.485       .  S
O315        C321   1.270       .  A
O315       Cd318   2.505       .  S
C316        O324   1.266       .  A
C316       C1205   1.496       .  S
C317        O322   1.269       .  A
C317        O320   1.262   1_545  A
C317       C1734   1.488       .  S
Cd318       O325   2.443       .  S
Cd318       O324   2.465       .  S
Cd318       O323   2.446       .  S
Cd318       O319   2.495       .  S
Cd318       O322   2.503   1_565  S
Cd318       O320   2.435       .  S
C321        O325   1.265       .  A
C321       C1245   1.485       .  S
O326        C329   1.269       .  A
O326       Cd331   2.488       .  S
C327        O336   1.264       .  A
C327        O332   1.269       .  A
C327       C2014   1.490       .  S
O328        C334   1.270       .  A
O328       Cd331   2.476       .  S
C329        O337   1.265       .  A
C329       C1185   1.481       .  S
C330        O335   1.268       .  A
C330        O333   1.264       .  A
C330       C1254   1.486       .  S
Cd331       O338   2.433       .  S
Cd331       O337   2.440       .  S
Cd331       O336   2.443       .  S
Cd331       O332   2.491       .  S
Cd331       O335   2.501       .  S
Cd331       O333   2.447       .  S
C334        O338   1.265       .  A
C334       C1454   1.475       .  S
O339        C342   1.269       .  A
O339       Cd344   2.492       .  S
C340        O349   1.264       .  A
C340        O345   1.268       .  A
C340       C1154   1.480       .  S
O341        C347   1.270   1_545  A
O341       Cd344   2.492       .  S
C342        O350   1.265       .  A
C342       C1225   1.490       .  S
C343        O348   1.269       .  A
C343        O346   1.263       .  A
C343       C1174   1.485       .  S
Cd344       O351   2.444       .  S
Cd344       O350   2.451       .  S
Cd344       O349   2.451       .  S
Cd344       O345   2.496       .  S
Cd344       O348   2.502       .  S
Cd344       O346   2.448       .  S
C347        O351   1.265   1_565  A
C347       C2354   1.481       .  S
O352        C355   1.268       .  A
O352       Cd357   2.487       .  S
C353        O362   1.266       .  A
C353        O358   1.268       .  A
C353       C1594   1.484       .  S
O354        C360   1.268       .  A
O354       Cd357   2.492       .  S
C355        O363   1.263       .  A
C355       C1125   1.479       .  S
C356        O361   1.269       .  A
C356        O359   1.264       .  A
C356       C1165   1.488       .  S
Cd357       O364   2.450       .  S
Cd357       O363   2.442       .  S
Cd357       O362   2.460       .  S
Cd357       O358   2.480       .  S
Cd357       O361   2.492       .  S
Cd357       O359   2.458       .  S
C360        O364   1.264       .  A
C360       C1834   1.481       .  S
O365        C368   1.269       .  A
O365       Cd370   2.500       .  S
C366        O375   1.266       .  A
C366        O371   1.270       .  A
C366       C2254   1.483       .  S
O367        C373   1.268       .  A
O367       Cd370   2.479       .  S
C368        O376   1.263       .  A
C368       C1194   1.482       .  S
C369        O374   1.269       .  A
C369        O372   1.265       .  A
C369       C1105   1.484       .  S
Cd370       O377   2.435       .  S
Cd370       O376   2.441       .  S
Cd370       O375   2.451       .  S
Cd370       O371   2.477       .  S
Cd370       O374   2.495       .  S
Cd370       O372   2.435       .  S
C373        O377   1.263       .  A
C373       C1085   1.485       .  S
O378        C381   1.270       .  A
O378       Cd383   2.491       .  S
C379        O388   1.264       .  A
C379        O384   1.269       .  A
C379       C1534   1.482       .  S
O380        C386   1.270       .  A
O380       Cd383   2.501   1_554  S
C381        O389   1.265       .  A
C381       C1074   1.480       .  S
C382        O387   1.269       .  A
C382        O385   1.264       .  A
C382       C1114   1.490       .  S
Cd383       O390   2.454       .  S
Cd383       O389   2.441       .  S
Cd383       O388   2.464       .  S
Cd383       O384   2.499       .  S
Cd383       O387   2.504       .  S
Cd383       O385   2.465       .  S
C386        O390   1.265   1_554  A
C386       C1045   1.497       .  S
O391        C394   1.267       .  A
O391       Cd396   2.498       .  S
C392        O401   1.264       .  A
C392        O397   1.268       .  A
C392        C985   1.477       .  S
O393        C399   1.266       .  A
O393       Cd396   2.473       .  S
C394        O402   1.263       .  A
C394       C1005   1.483       .  S
C395        O400   1.266       .  A
C395        O398   1.266       .  A
C395       C1034   1.476       .  S
Cd396       O403   2.464       .  S
Cd396       O402   2.437       .  S
Cd396       O401   2.443       .  S
Cd396       O397   2.480       .  S
Cd396       O400   2.462       .  S
Cd396       O398   2.448       .  S
C399        O403   1.265       .  A
C399       C2094   1.482       .  S
O404        C407   1.266       .  A
O404       Cd409   2.466       .  S
C405        O414   1.266       .  A
C405        O410   1.266       .  A
C405       C1294   1.486       .  S
O406        C412   1.268       .  A
O406       Cd409   2.476   1_556  S
C407        O415   1.265       .  A
C407       C1065   1.480       .  S
C408        O413   1.267       .  A
C408        O411   1.263       .  A
C408       C1025   1.483       .  S
Cd409       O416   2.421       .  S
Cd409       O415   2.460       .  S
Cd409       O414   2.446       .  S
Cd409       O410   2.483       .  S
Cd409       O413   2.507       .  S
Cd409       O411   2.429       .  S
C412        O416   1.264   1_556  A
C412       C2474   1.470       .  S
O417        C420   1.269       .  A
O417       Cd422   2.464       .  S
C418        O427   1.265       .  A
C418        O423   1.268       .  A
C418       C1314   1.475       .  S
O419        C425   1.271       .  A
O419       Cd422   2.492       .  S
C420        O428   1.266       .  A
C420       C1134   1.474       .  S
C421        O426   1.270       .  A
C421        O424   1.264       .  A
C421        C965   1.489       .  S
Cd422       O429   2.438       .  S
Cd422       O428   2.427       .  S
Cd422       O427   2.441       .  S
Cd422       O423   2.472       .  S
Cd422       O426   2.505       .  S
Cd422       O424   2.449       .  S
C425        O429   1.264       .  A
C425        C954   1.483       .  S
O430        C433   1.267       .  A
O430       Cd435   2.505       .  S
C431        O440   1.265       .  A
C431        O436   1.268       .  A
C431       C1954   1.484       .  S
O432        C438   1.269       .  A
O432       Cd435   2.509   1_455  S
C433        O441   1.264       .  A
C433        C925   1.488       .  S
C434        O439   1.267       .  A
C434        O437   1.264       .  A
C434        C974   1.486       .  S
Cd435       O442   2.454   1_655  S
Cd435       O441   2.473       .  S
Cd435       O440   2.456       .  S
Cd435       O436   2.498       .  S
Cd435       O439   2.507       .  S
Cd435       O437   2.458       .  S
C438        O442   1.264       .  A
C438        C905   1.494       .  S
O443        C446   1.271       .  A
O443       Cd448   2.466       .  S
C444        O453   1.265       .  A
C444        O449   1.268       .  A
C444        C865   1.482       .  S
O445        C451   1.270       .  A
O445       Cd448   2.504       .  S
C446        O454   1.263       .  A
C446       C1014   1.484       .  S
C447        O452   1.270       .  A
C447        O450   1.263       .  A
C447        C894   1.479       .  S
Cd448       O455   2.437       .  S
Cd448       O454   2.453       .  S
Cd448       O453   2.454       .  S
Cd448       O449   2.485       .  S
Cd448       O452   2.484       .  S
Cd448       O450   2.430       .  S
C451        O455   1.264       .  A
C451       C1394   1.488       .  S
O456        C459   1.268       .  A
O456       Cd461   2.516       .  S
C457        O466   1.264       .  A
C457        O462   1.268       .  A
C457       C2185   1.477       .  S
O458        C464   1.268   1_455  A
O458       Cd461   2.492       .  S
C459        O467   1.264       .  A
C459        C934   1.493       .  S
C460        O465   1.267       .  A
C460        O463   1.263       .  A
C460        C885   1.483       .  S
Cd461       O468   2.433       .  S
Cd461       O467   2.466       .  S
Cd461       O466   2.452       .  S
Cd461       O462   2.481       .  S
Cd461       O465   2.487       .  S
Cd461       O463   2.452       .  S
C464        O468   1.265   1_655  A
C464       C1625   1.479       .  S
O469        C472   1.270       .  A
O469       Cd474   2.470       .  S
C470        O479   1.263       .  A
C470        O475   1.268       .  A
C470       C2494   1.481       .  S
O471        C477   1.268       .  A
O471       Cd474   2.477   1_554  S
C472        O480   1.266       .  A
C472        C834   1.478       .  S
C473        O478   1.269       .  A
C473        O476   1.265       .  A
C473        C845   1.479       .  S
Cd474       O481   2.442   1_556  S
Cd474       O480   2.432       .  S
Cd474       O479   2.444       .  S
Cd474       O475   2.488       .  S
Cd474       O478   2.487       .  S
Cd474       O476   2.434       .  S
C477        O481   1.263       .  A
C477       C1265   1.485       .  S
O482        C485   1.267       .  A
O482       Cd487   2.494       .  S
C483        O492   1.264       .  A
C483        O488   1.267       .  A
C483       C1094   1.483       .  S
O484        C490   1.267       .  A
O484       Cd487   2.508       .  S
C485        O493   1.264       .  A
C485        C805   1.494       .  S
C486        O491   1.269       .  A
C486        O489   1.266       .  A
C486        C854   1.489       .  S
Cd487       O494   2.458       .  S
Cd487       O493   2.453       .  S
Cd487       O492   2.456       .  S
Cd487       O488   2.502       .  S
Cd487       O491   2.492       .  S
Cd487       O489   2.448       .  S
C490        O494   1.263       .  A
C490       C1774   1.478       .  S
O495        C498   1.268       .  A
O495       Cd500   2.496       .  S
C496        O505   1.265       .  A
C496        O501   1.269       .  A
C496        C825   1.482       .  S
O497        C503   1.271       .  A
O497       Cd500   2.509       .  S
C498        O506   1.265       .  A
C498       C1894   1.486       .  S
C499        O504   1.270   1_556  A
C499        O502   1.264   1_556  A
C499       C1214   1.494       .  S
Cd500       O507   2.449       .  S
Cd500       O506   2.462       .  S
Cd500       O505   2.445       .  S
Cd500       O501   2.479       .  S
Cd500       O504   2.505       .  S
Cd500       O502   2.462       .  S
C503        O507   1.263       .  A
C503        C794   1.489       .  S
O508        C511   1.269       .  A
O508       Cd513   2.494       .  S
C509        O518   1.265       .  A
C509        O514   1.269       .  A
C509       C1674   1.483       .  S
O510        C516   1.269       .  A
O510       Cd513   2.487       .  S
C511        O519   1.264       .  A
C511        C765   1.486       .  S
C512        O517   1.268       .  A
C512        O515   1.265       .  A
C512        C785   1.484       .  S
Cd513       O520   2.439       .  S
Cd513       O519   2.453       .  S
Cd513       O518   2.447       .  S
Cd513       O514   2.490       .  S
Cd513       O517   2.489       .  S
Cd513       O515   2.462       .  S
C516        O520   1.264       .  A
C516        C994   1.484       .  S
O521        C524   1.268       .  A
O521       Cd526   2.492       .  S
C522        O531   1.265       .  A
C522        O527   1.268       .  A
C522       C1465   1.493       .  S
O523        C529   1.270       .  A
O523       Cd526   2.501       .  S
C524        O532   1.265       .  A
C524        C774   1.489       .  S
C525        O530   1.269       .  A
C525        O528   1.264       .  A
C525        C754   1.493       .  S
Cd526       O533   2.450       .  S
Cd526       O532   2.464       .  S
Cd526       O531   2.482       .  S
Cd526       O527   2.489       .  S
Cd526       O530   2.520       .  S
Cd526       O528   2.464       .  S
C529        O533   1.264       .  A
C529       C1994   1.479       .  S
O534        C537   1.268       .  A
O534       Cd539   2.499       .  S
C535        O544   1.266       .  A
C535        O540   1.269       .  A
C535       C1054   1.487       .  S
O536        C542   1.269       .  A
O536       Cd539   2.523   1_545  S
C537        O545   1.264       .  A
C537        C725   1.483       .  S
C538        O543   1.270       .  A
C538        O541   1.265       .  A
C538        C745   1.492       .  S
Cd539       O546   2.463       .  S
Cd539       O545   2.440       .  S
Cd539       O544   2.450       .  S
Cd539       O540   2.487       .  S
Cd539       O543   2.502       .  S
Cd539       O541   2.469       .  S
C542        O546   1.264   1_545  A
C542       C2054   1.498       .  S
O547        C550   1.268       .  A
O547       Cd552   2.465       .  S
C548        O557   1.264       .  A
C548        O553   1.266       .  A
C548        C685   1.486       .  S
O549        C555   1.267       .  A
O549       Cd552   2.483       .  S
C550        O558   1.265       .  A
C550       C1845   1.476       .  S
C551        O556   1.267       .  A
C551        O554   1.263       .  A
C551       C1565   1.481       .  S
Cd552       O559   2.445       .  S
Cd552       O558   2.453       .  S
Cd552       O557   2.455       .  S
Cd552       O553   2.495       .  S
Cd552       O556   2.485       .  S
Cd552       O554   2.442       .  S
C555        O559   1.265       .  A
C555        C714   1.484       .  S
O560        C563   1.268       .  A
O560       Cd565   2.493       .  S
C561        O570   1.266       .  A
C561        O566   1.268       .  A
C561        C914   1.482       .  S
O562        C568   1.270       .  A
O562       Cd565   2.502   1_565  S
C563        O571   1.264       .  A
C563        C734   1.488       .  S
C564        O569   1.269       .  A
C564        O567   1.263       .  A
C564        C705   1.489       .  S
Cd565       O572   2.446   1_545  S
Cd565       O571   2.448       .  S
Cd565       O570   2.479       .  S
Cd565       O566   2.474       .  S
Cd565       O569   2.513       .  S
Cd565       O567   2.446       .  S
C568        O572   1.266       .  A
C568       C1354   1.492       .  S
O573        C576   1.268       .  A
O573       Cd578   2.491       .  S
C574        O583   1.263       .  A
C574        O579   1.268       .  A
C574        C814   1.489       .  S
O575        C581   1.268       .  A
O575       Cd578   2.466       .  S
C576        O584   1.264       .  A
C576        C945   1.481       .  S
C577        O582   1.266       .  A
C577        O580   1.262       .  A
C577       C2285   1.472       .  S
Cd578       O585   2.454       .  S
Cd578       O584   2.458       .  S
Cd578       O583   2.449       .  S
Cd578       O579   2.494       .  S
Cd578       O582   2.485       .  S
Cd578       O580   2.431       .  S
C581        O585   1.267       .  A
C581        C665   1.479       .  S
O586        C589   1.268       .  A
O586       Cd591   2.496       .  S
C587        O596   1.267       .  A
C587        O592   1.269       .  A
C587       C1645   1.493       .  S
O588        C594   1.270       .  A
O588       Cd591   2.494   1_455  S
C589        O597   1.262       .  A
C589        C645   1.482       .  S
C590        O595   1.268       .  A
C590        O593   1.262       .  A
C590        C674   1.493       .  S
Cd591       O598   2.441       .  S
Cd591       O597   2.438       .  S
Cd591       O596   2.449       .  S
Cd591       O592   2.490       .  S
Cd591       O595   2.507       .  S
Cd591       O593   2.451       .  S
C594        O598   1.265   1_455  A
C594       C2165   1.491       .  S
O599        C602   1.268       .  A
O599       Cd604   2.489       .  S
C600        O609   1.266       .  A
C600        O605   1.269       .  A
C600       C1434   1.482       .  S
O601        C607   1.271   1_455  A
O601       Cd604   2.513       .  S
C602        O610   1.264       .  A
C602        C654   1.484       .  S
C603        O608   1.270       .  A
C603        O606   1.265       .  A
C603        C634   1.483       .  S
Cd604       O611   2.443       .  S
Cd604       O610   2.444       .  S
Cd604       O609   2.456       .  S
Cd604       O605   2.481       .  S
Cd604       O608   2.487       .  S
Cd604       O606   2.449       .  S
C607        O611   1.262   1_655  A
C607       C1145   1.491       .  S
O612        C615   1.270       .  A
O612       Cd617   2.482       .  S
C613        O622   1.264       .  A
C613        O618   1.268       .  A
C613       C2425   1.476       .  S
O614        C620   1.270       .  A
O614       Cd617   2.484       .  S
C615        O623   1.265       .  A
C615        C694   1.482       .  S
C616        O621   1.269       .  A
C616        O619   1.264       .  A
C616        C625   1.488       .  S
Cd617       O624   2.435       .  S
Cd617       O623   2.431       .  S
Cd617       O622   2.435       .  S
Cd617       O618   2.484       .  S
Cd617       O621   2.493       .  S
Cd617       O619   2.450       .  S
C620        O624   1.265       .  A
C620        C874   1.479       .  S
C625        C626   1.416       .  A
C625        C630   1.415       .  A
C626        C627   1.408       .  A
C626       Br638   1.929       .  S
C627        C628   1.407       .  A
C627       Br642   1.932       .  S
C628        C631   1.487       .  S
C628        C629   1.408       .  A
C629        C630   1.410       .  A
C629       Br637   1.929       .  S
C630       Br641   1.930       .  S
C631        C632   1.409       .  A
C631        C636   1.408       .  A
C632        C633   1.409       .  A
C632       Br643   1.931       .  S
C633        C634   1.414       .  A
C633       Br639   1.930       .  S
C634        C635   1.412       .  A
C635        C636   1.409       .  A
C635       Br644   1.929       .  S
C636       Br640   1.929       .  S
C645        C646   1.412       .  A
C645        C650   1.414       .  A
C646        C647   1.410       .  A
C646       Br658   1.930       .  S
C647        C648   1.410   1_655  A
C647       Br662   1.929   1_655  S
C648        C651   1.489       .  S
C648        C649   1.410   1_455  A
C649        C650   1.407       .  A
C649       Br657   1.932   1_655  S
C650       Br661   1.933       .  S
C651        C652   1.411       .  A
C651        C656   1.410   1_455  A
C652        C653   1.410       .  A
C652       Br663   1.930       .  S
C653        C654   1.413       .  A
C653       Br659   1.931       .  S
C654        C655   1.415   1_455  A
C655        C656   1.407       .  A
C655       Br664   1.933       .  S
C656       Br660   1.933       .  S
C665        C666   1.412       .  A
C665        C670   1.411       .  A
C666        C667   1.408       .  A
C666       Br678   1.932       .  S
C667        C668   1.409       .  A
C667       Br682   1.929       .  S
C668        C671   1.488       .  S
C668        C669   1.410       .  A
C669        C670   1.409       .  A
C669       Br677   1.928       .  S
C670       Br681   1.930       .  S
C671        C672   1.408       .  A
C671        C676   1.406       .  A
C672        C673   1.412       .  A
C672       Br683   1.930       .  S
C673        C674   1.418       .  A
C673       Br679   1.930       .  S
C674        C675   1.420       .  A
C675        C676   1.408       .  A
C675       Br684   1.934       .  S
C676       Br680   1.933       .  S
C685        C686   1.415       .  A
C685        C690   1.415       .  A
C686        C687   1.406       .  A
C686       Br698   1.930       .  S
C687        C688   1.406       .  A
C687       Br702   1.932       .  S
C688        C691   1.485       .  S
C688        C689   1.408       .  A
C689        C690   1.411       .  A
C689       Br697   1.929       .  S
C690       Br701   1.930       .  S
C691        C692   1.408       .  A
C691        C696   1.408       .  A
C692        C693   1.406       .  A
C692       Br703   1.931       .  S
C693        C694   1.414       .  A
C693       Br699   1.933       .  S
C694        C695   1.414       .  A
C695        C696   1.410       .  A
C695       Br704   1.930       .  S
C696       Br700   1.929       .  S
C705        C706   1.417       .  A
C705        C710   1.415       .  A
C706        C707   1.407       .  A
C706       Br718   1.930       .  S
C707        C708   1.407       .  A
C707       Br722   1.933       .  S
C708        C711   1.488       .  S
C708        C709   1.409       .  A
C709        C710   1.412       .  A
C709       Br717   1.929       .  S
C710       Br721   1.929       .  S
C711        C712   1.409       .  A
C711        C716   1.408       .  A
C712        C713   1.411       .  A
C712       Br723   1.929       .  S
C713        C714   1.414       .  A
C713       Br719   1.931       .  S
C714        C715   1.414       .  A
C715        C716   1.407       .  A
C715       Br724   1.933       .  S
C716       Br720   1.930       .  S
C725        C726   1.413       .  A
C725        C730   1.415   1_565  A
C726        C727   1.410       .  A
C726       Br738   1.929       .  S
C727        C728   1.409       .  A
C727       Br742   1.931       .  S
C728        C731   1.486   1_565  S
C728        C729   1.407   1_565  A
C729        C730   1.407       .  A
C729       Br737   1.930       .  S
C730       Br741   1.932       .  S
C731        C732   1.408       .  A
C731        C736   1.406       .  A
C732        C733   1.411       .  A
C732       Br743   1.930       .  S
C733        C734   1.416       .  A
C733       Br739   1.931       .  S
C734        C735   1.417       .  A
C735        C736   1.407       .  A
C735       Br744   1.931       .  S
C736       Br740   1.932       .  S
C745        C746   1.417       .  A
C745        C750   1.415       .  A
C746        C747   1.412       .  A
C746       Br758   1.932       .  S
C747        C748   1.410       .  A
C747       Br762   1.930       .  S
C748        C751   1.495       .  S
C748        C749   1.409       .  A
C749        C750   1.411       .  A
C749       Br757   1.929       .  S
C750       Br761   1.930       .  S
C751        C752   1.409       .  A
C751        C756   1.410       .  A
C752        C753   1.410       .  A
C752       Br763   1.930       .  S
C753        C754   1.415       .  A
C753       Br759   1.931       .  S
C754        C755   1.416       .  A
C755        C756   1.414       .  A
C755       Br764   1.930       .  S
C756       Br760   1.929       .  S
C765        C766   1.413       .  A
C765        C770   1.416       .  A
C766        C767   1.410       .  A
C766       Br778   1.930       .  S
C767        C768   1.409       .  A
C767       Br782   1.929       .  S
C768        C771   1.490       .  S
C768        C769   1.408       .  A
C769        C770   1.409       .  A
C769       Br777   1.931       .  S
C770       Br781   1.930       .  S
C771        C772   1.408       .  A
C771        C776   1.408       .  A
C772        C773   1.411       .  A
C772       Br783   1.929       .  S
C773        C774   1.415       .  A
C773       Br779   1.930       .  S
C774        C775   1.415       .  A
C775        C776   1.409       .  A
C775       Br784   1.931       .  S
C776       Br780   1.931       .  S
C785        C786   1.413       .  A
C785        C790   1.413       .  A
C786        C787   1.410       .  A
C786       Br798   1.931       .  S
C787        C788   1.410       .  A
C787       Br802   1.930       .  S
C788        C791   1.490       .  S
C788        C789   1.409       .  A
C789        C790   1.410       .  A
C789       Br797   1.928       .  S
C790       Br801   1.930       .  S
C791        C792   1.407       .  A
C791        C796   1.409       .  A
C792        C793   1.408       .  A
C792       Br803   1.932       .  S
C793        C794   1.416       .  A
C793       Br799   1.932       .  S
C794        C795   1.415       .  A
C795        C796   1.412       .  A
C795       Br804   1.930       .  S
C796       Br800   1.929       .  S
C805        C806   1.419       .  A
C805        C810   1.420       .  A
C806        C807   1.411       .  A
C806       Br818   1.932       .  S
C807        C808   1.409       .  A
C807       Br822   1.932       .  S
C808        C811   1.489       .  S
C808        C809   1.407       .  A
C809        C810   1.408       .  A
C809       Br817   1.933       .  S
C810       Br821   1.933       .  S
C811        C812   1.410       .  A
C811        C816   1.408       .  A
C812        C813   1.411       .  A
C812       Br823   1.931       .  S
C813        C814   1.416       .  A
C813       Br819   1.932       .  S
C814        C815   1.417       .  A
C815        C816   1.408       .  A
C815       Br824   1.932       .  S
C816       Br820   1.933       .  S
C825        C826   1.414       .  A
C825        C830   1.413       .  A
C826        C827   1.408       .  A
C826       Br838   1.932       .  S
C827        C828   1.408       .  A
C827       Br842   1.931       .  S
C828        C831   1.486       .  S
C828        C829   1.409       .  A
C829        C830   1.409       .  A
C829       Br837   1.930       .  S
C830       Br841   1.930       .  S
C831        C832   1.409       .  A
C831        C836   1.410   1_554  A
C832        C833   1.408       .  A
C832       Br843   1.930       .  S
C833        C834   1.413   1_554  A
C833       Br839   1.933       .  S
C834        C835   1.411       .  A
C835        C836   1.408       .  A
C835       Br844   1.930       .  S
C836       Br840   1.930       .  S
C845        C846   1.412       .  A
C845        C850   1.412       .  A
C846        C847   1.410       .  A
C846       Br858   1.930       .  S
C847        C848   1.410       .  A
C847       Br862   1.929       .  S
C848        C851   1.486       .  S
C848        C849   1.408       .  A
C849        C850   1.406       .  A
C849       Br857   1.930       .  S
C850       Br861   1.932       .  S
C851        C852   1.408       .  A
C851        C856   1.407       .  A
C852        C853   1.411       .  A
C852       Br863   1.929       .  S
C853        C854   1.416       .  A
C853       Br859   1.930       .  S
C854        C855   1.416       .  A
C855        C856   1.407       .  A
C855       Br864   1.928       .  S
C856       Br860   1.933       .  S
C865        C866   1.414       .  A
C865        C870   1.411       .  A
C866        C867   1.410       .  A
C866       Br878   1.930       .  S
C867        C868   1.408       .  A
C867       Br882   1.929       .  S
C868        C871   1.486       .  S
C868        C869   1.409       .  A
C869        C870   1.407       .  A
C869       Br877   1.930       .  S
C870       Br881   1.928       .  S
C871        C872   1.410       .  A
C871        C876   1.408       .  A
C872        C873   1.409       .  A
C872       Br883   1.929       .  S
C873        C874   1.411       .  A
C873       Br879   1.930       .  S
C874        C875   1.413       .  A
C875        C876   1.407       .  A
C875       Br884   1.932       .  S
C876       Br880   1.930       .  S
C885        C886   1.415       .  A
C885        C890   1.414       .  A
C886        C887   1.407       .  A
C886       Br898   1.933       .  S
C887        C888   1.409       .  A
C887       Br902   1.932       .  S
C888        C891   1.485       .  S
C888        C889   1.408       .  A
C889        C890   1.409       .  A
C889       Br897   1.930       .  S
C890       Br901   1.929       .  S
C891        C892   1.410       .  A
C891        C896   1.407       .  A
C892        C893   1.409       .  A
C892       Br903   1.929       .  S
C893        C894   1.412       .  A
C893       Br899   1.930       .  S
C894        C895   1.414       .  A
C895        C896   1.406       .  A
C895       Br904   1.931       .  S
C896       Br900   1.931       .  S
C905        C906   1.418       .  A
C905        C910   1.418       .  A
C906        C907   1.409       .  A
C906       Br918   1.932       .  S
C907        C908   1.407       .  A
C907       Br922   1.932       .  S
C908        C911   1.491       .  S
C908        C909   1.409       .  A
C909        C910   1.413       .  A
C909       Br917   1.930       .  S
C910       Br921   1.931       .  S
C911        C912   1.411       .  A
C911        C916   1.410       .  A
C912        C913   1.410       .  A
C912       Br923   1.930       .  S
C913        C914   1.411       .  A
C913       Br919   1.930       .  S
C914        C915   1.411       .  A
C915        C916   1.410       .  A
C915       Br924   1.930       .  S
C916       Br920   1.928       .  S
C925        C926   1.413       .  A
C925        C930   1.413   1_655  A
C926        C927   1.412       .  A
C926       Br938   1.930       .  S
C927        C928   1.411   1_655  A
C927       Br942   1.929       .  S
C928        C931   1.495       .  S
C928        C929   1.410       .  A
C929        C930   1.411       .  A
C929       Br937   1.929       .  S
C930       Br941   1.930       .  S
C931        C932   1.410       .  A
C931        C936   1.409       .  A
C932        C933   1.414       .  A
C932       Br943   1.929       .  S
C933        C934   1.416       .  A
C933       Br939   1.930       .  S
C934        C935   1.416       .  A
C935        C936   1.410       .  A
C935       Br944   1.932       .  S
C936       Br940   1.930       .  S
C945        C946   1.412       .  A
C945        C950   1.411       .  A
C946        C947   1.410       .  A
C946       Br958   1.930       .  S
C947        C948   1.411       .  A
C947       Br962   1.930       .  S
C948        C951   1.489       .  S
C948        C949   1.410       .  A
C949        C950   1.408       .  A
C949       Br957   1.930       .  S
C950       Br961   1.930       .  S
C951        C952   1.410       .  A
C951        C956   1.410       .  A
C952        C953   1.409       .  A
C952       Br963   1.931       .  S
C953        C954   1.414       .  A
C953       Br959   1.933       .  S
C954        C955   1.413       .  A
C955        C956   1.409       .  A
C955       Br964   1.930       .  S
C956       Br960   1.930       .  S
C965        C966   1.415       .  A
C965        C970   1.415       .  A
C966        C967   1.408       .  A
C966       Br978   1.931       .  S
C967        C968   1.408       .  A
C967       Br982   1.932       .  S
C968        C971   1.490       .  S
C968        C969   1.409       .  A
C969        C970   1.413       .  A
C969       Br977   1.929       .  S
C970       Br981   1.930       .  S
C971        C972   1.409       .  A
C971        C976   1.409       .  A
C972        C973   1.409       .  A
C972       Br983   1.930       .  S
C973        C974   1.414       .  A
C973       Br979   1.932       .  S
C974        C975   1.414       .  A
C975        C976   1.411       .  A
C975       Br984   1.929       .  S
C976       Br980   1.930       .  S
C985        C986   1.411       .  A
C985        C990   1.410       .  A
C986        C987   1.406       .  A
C986       Br998   1.933       .  S
C987        C988   1.410       .  A
C987      Br1002   1.931       .  S
C988        C991   1.487       .  S
C988        C989   1.410       .  A
C989        C990   1.409       .  A
C989       Br997   1.929       .  S
C990      Br1001   1.929       .  S
C991        C992   1.407       .  A
C991        C996   1.410       .  A
C992        C993   1.407       .  A
C992      Br1003   1.932       .  S
C993        C994   1.416       .  A
C993       Br999   1.931       .  S
C994        C995   1.414       .  A
C995        C996   1.410       .  A
C995      Br1004   1.931       .  S
C996      Br1000   1.930       .  S
C1005      C1006   1.414       .  A
C1005      C1010   1.415       .  A
C1006      C1007   1.405       .  A
C1006     Br1018   1.933       .  S
C1007      C1008   1.408       .  A
C1007     Br1022   1.932       .  S
C1008      C1011   1.486       .  S
C1008      C1009   1.409       .  A
C1009      C1010   1.410       .  A
C1009     Br1017   1.930       .  S
C1010     Br1021   1.930       .  S
C1011      C1012   1.408       .  A
C1011      C1016   1.408       .  A
C1012      C1013   1.408       .  A
C1012     Br1023   1.933       .  S
C1013      C1014   1.418       .  A
C1013     Br1019   1.931       .  S
C1014      C1015   1.413       .  A
C1015      C1016   1.408       .  A
C1015     Br1024   1.932       .  S
C1016     Br1020   1.929       .  S
C1025      C1026   1.413       .  A
C1025      C1030   1.415       .  A
C1026      C1027   1.404       .  A
C1026     Br1038   1.933       .  S
C1027      C1028   1.407       .  A
C1027     Br1042   1.932       .  S
C1028      C1031   1.484       .  S
C1028      C1029   1.409       .  A
C1029      C1030   1.412       .  A
C1029     Br1037   1.929       .  S
C1030     Br1041   1.929       .  S
C1031      C1032   1.409       .  A
C1031      C1036   1.408       .  A
C1032      C1033   1.406       .  A
C1032     Br1043   1.930       .  S
C1033      C1034   1.411       .  A
C1033     Br1039   1.932       .  S
C1034      C1035   1.412       .  A
C1035      C1036   1.408       .  A
C1035     Br1044   1.931       .  S
C1036     Br1040   1.929       .  S
C1045      C1046   1.418       .  A
C1045      C1050   1.421       .  A
C1046      C1047   1.412       .  A
C1046     Br1058   1.931       .  S
C1047      C1048   1.409       .  A
C1047     Br1062   1.930       .  S
C1048      C1051   1.492       .  S
C1048      C1049   1.407       .  A
C1049      C1050   1.409       .  A
C1049     Br1057   1.934       .  S
C1050     Br1061   1.931       .  S
C1051      C1052   1.411       .  A
C1051      C1056   1.410       .  A
C1052      C1053   1.411       .  A
C1052     Br1063   1.930       .  S
C1053      C1054   1.414       .  A
C1053     Br1059   1.930       .  S
C1054      C1055   1.414       .  A
C1055      C1056   1.408       .  A
C1055     Br1064   1.933       .  S
C1056     Br1060   1.931       .  S
C1065      C1066   1.413       .  A
C1065      C1070   1.413       .  A
C1066      C1067   1.408       .  A
C1066     Br1078   1.933       .  S
C1067      C1068   1.410       .  A
C1067     Br1082   1.930       .  S
C1068      C1071   1.487   1_554  S
C1068      C1069   1.409       .  A
C1069      C1070   1.408       .  A
C1069     Br1077   1.929       .  S
C1070     Br1081   1.931       .  S
C1071      C1072   1.409   1_556  A
C1071      C1076   1.410       .  A
C1072      C1073   1.408       .  A
C1072     Br1083   1.931       .  S
C1073      C1074   1.412   1_554  A
C1073     Br1079   1.931       .  S
C1074      C1075   1.411       .  A
C1075      C1076   1.409       .  A
C1075     Br1084   1.928       .  S
C1076     Br1080   1.929       .  S
C1085      C1086   1.419       .  A
C1085      C1090   1.415       .  A
C1086      C1087   1.407       .  A
C1086     Br1098   1.935       .  S
C1087      C1088   1.406       .  A
C1087     Br1102   1.932       .  S
C1088      C1091   1.484       .  S
C1088      C1089   1.408       .  A
C1089      C1090   1.409       .  A
C1089     Br1097   1.929       .  S
C1090     Br1101   1.931       .  S
C1091      C1092   1.407       .  A
C1091      C1096   1.408       .  A
C1092      C1093   1.406       .  A
C1092     Br1103   1.932       .  S
C1093      C1094   1.412       .  A
C1093     Br1099   1.929       .  S
C1094      C1095   1.414       .  A
C1095      C1096   1.410       .  A
C1095     Br1104   1.926       .  S
C1096     Br1100   1.930       .  S
C1105      C1106   1.414       .  A
C1105      C1110   1.413       .  A
C1106      C1107   1.408       .  A
C1106     Br1118   1.934       .  S
C1107      C1108   1.410       .  A
C1107     Br1122   1.929       .  S
C1108      C1111   1.492       .  S
C1108      C1109   1.411       .  A
C1109      C1110   1.411       .  A
C1109     Br1117   1.929       .  S
C1110     Br1121   1.930       .  S
C1111      C1112   1.410       .  A
C1111      C1116   1.410       .  A
C1112      C1113   1.412       .  A
C1112     Br1123   1.929       .  S
C1113      C1114   1.414       .  A
C1113     Br1119   1.930       .  S
C1114      C1115   1.416       .  A
C1115      C1116   1.410       .  A
C1115     Br1124   1.931       .  S
C1116     Br1120   1.933       .  S
C1125      C1126   1.413       .  A
C1125      C1130   1.412       .  A
C1126      C1127   1.407       .  A
C1126     Br1138   1.928       .  S
C1127      C1128   1.407       .  A
C1127     Br1142   1.931       .  S
C1128      C1131   1.481       .  S
C1128      C1129   1.408       .  A
C1129      C1130   1.407       .  A
C1129     Br1137   1.930       .  S
C1130     Br1141   1.930       .  S
C1131      C1132   1.408       .  A
C1131      C1136   1.409       .  A
C1132      C1133   1.405       .  A
C1132     Br1143   1.930       .  S
C1133      C1134   1.412       .  A
C1133     Br1139   1.933       .  S
C1134      C1135   1.411       .  A
C1135      C1136   1.408       .  A
C1135     Br1144   1.930       .  S
C1136     Br1140   1.929       .  S
C1145      C1146   1.418       .  A
C1145      C1150   1.415       .  A
C1146      C1147   1.407       .  A
C1146     Br1158   1.932       .  S
C1147      C1148   1.406       .  A
C1147     Br1162   1.931       .  S
C1148      C1151   1.490       .  S
C1148      C1149   1.411       .  A
C1149      C1150   1.413       .  A
C1149     Br1157   1.929       .  S
C1150     Br1161   1.930       .  S
C1151      C1152   1.410       .  A
C1151      C1156   1.411       .  A
C1152      C1153   1.408       .  A
C1152     Br1163   1.930       .  S
C1153      C1154   1.410       .  A
C1153     Br1159   1.930       .  S
C1154      C1155   1.411       .  A
C1155      C1156   1.411       .  A
C1155     Br1164   1.929       .  S
C1156     Br1160   1.928       .  S
C1165      C1166   1.414       .  A
C1165      C1170   1.416       .  A
C1166      C1167   1.409       .  A
C1166     Br1178   1.930       .  S
C1167      C1168   1.408       .  A
C1167     Br1182   1.929       .  S
C1168      C1171   1.489       .  S
C1168      C1169   1.408       .  A
C1169      C1170   1.410       .  A
C1169     Br1177   1.931       .  S
C1170     Br1181   1.932       .  S
C1171      C1172   1.409       .  A
C1171      C1176   1.409       .  A
C1172      C1173   1.407       .  A
C1172     Br1183   1.932       .  S
C1173      C1174   1.414       .  A
C1173     Br1179   1.931       .  S
C1174      C1175   1.414       .  A
C1175      C1176   1.412       .  A
C1175     Br1184   1.930       .  S
C1176     Br1180   1.928       .  S
C1185      C1186   1.413       .  A
C1185      C1190   1.413       .  A
C1186      C1187   1.411       .  A
C1186     Br1198   1.929       .  S
C1187      C1188   1.409       .  A
C1187     Br1202   1.928       .  S
C1188      C1191   1.487       .  S
C1188      C1189   1.409       .  A
C1189      C1190   1.407       .  A
C1189     Br1197   1.931       .  S
C1190     Br1201   1.933       .  S
C1191      C1192   1.409       .  A
C1191      C1196   1.407       .  A
C1192      C1193   1.409       .  A
C1192     Br1203   1.929       .  S
C1193      C1194   1.411       .  A
C1193     Br1199   1.929       .  S
C1194      C1195   1.415       .  A
C1195      C1196   1.408       .  A
C1195     Br1204   1.932       .  S
C1196     Br1200   1.930       .  S
C1205      C1206   1.418       .  A
C1205      C1210   1.419       .  A
C1206      C1207   1.414       .  A
C1206     Br1218   1.931       .  S
C1207      C1208   1.410       .  A
C1207     Br1222   1.930       .  S
C1208      C1211   1.495       .  S
C1208      C1209   1.408       .  A
C1209      C1210   1.410       .  A
C1209     Br1217   1.932       .  S
C1210     Br1221   1.933       .  S
C1211      C1212   1.410       .  A
C1211      C1216   1.409       .  A
C1212      C1213   1.413       .  A
C1212     Br1223   1.929       .  S
C1213      C1214   1.416       .  A
C1213     Br1219   1.931       .  S
C1214      C1215   1.418       .  A
C1215      C1216   1.410       .  A
C1215     Br1224   1.932   1_556  S
C1216     Br1220   1.932       .  S
C1225      C1226   1.417       .  A
C1225      C1230   1.417       .  A
C1226      C1227   1.412       .  A
C1226     Br1238   1.931       .  S
C1227      C1228   1.408       .  A
C1227     Br1242   1.930       .  S
C1228      C1231   1.489       .  S
C1228      C1229   1.407       .  A
C1229      C1230   1.408       .  A
C1229     Br1237   1.933       .  S
C1230     Br1241   1.932       .  S
C1231      C1232   1.410   1_545  A
C1231      C1236   1.408       .  A
C1232      C1233   1.410       .  A
C1232     Br1243   1.930       .  S
C1233      C1234   1.413       .  A
C1233     Br1239   1.930       .  S
C1234      C1235   1.416   1_565  A
C1235      C1236   1.408       .  A
C1235     Br1244   1.932       .  S
C1236     Br1240   1.931       .  S
C1245      C1246   1.413       .  A
C1245      C1250   1.414       .  A
C1246      C1247   1.407       .  A
C1246     Br1258   1.932       .  S
C1247      C1248   1.408       .  A
C1247     Br1262   1.931       .  S
C1248      C1251   1.490       .  S
C1248      C1249   1.410       .  A
C1249      C1250   1.413       .  A
C1249     Br1257   1.929       .  S
C1250     Br1261   1.929       .  S
C1251      C1252   1.408       .  A
C1251      C1256   1.409       .  A
C1252      C1253   1.408       .  A
C1252     Br1263   1.931       .  S
C1253      C1254   1.415       .  A
C1253     Br1259   1.933       .  S
C1254      C1255   1.414       .  A
C1255      C1256   1.412       .  A
C1255     Br1264   1.930       .  S
C1256     Br1260   1.929       .  S
C1265      C1266   1.417       .  A
C1265      C1270   1.415       .  A
C1266      C1267   1.407       .  A
C1266     Br1278   1.934       .  S
C1267      C1268   1.407       .  A
C1267     Br1282   1.933       .  S
C1268      C1271   1.486       .  S
C1268      C1269   1.408       .  A
C1269      C1270   1.410       .  A
C1269     Br1277   1.928       .  S
C1270     Br1281   1.932       .  S
C1271      C1272   1.407       .  A
C1271      C1276   1.407       .  A
C1272      C1273   1.408       .  A
C1272     Br1283   1.932       .  S
C1273      C1274   1.417       .  A
C1273     Br1279   1.931       .  S
C1274      C1275   1.417       .  A
C1275      C1276   1.410       .  A
C1275     Br1284   1.931       .  S
C1276     Br1280   1.930       .  S
C1285      C1286   1.414       .  A
C1285      C1290   1.414       .  A
C1286      C1287   1.411       .  A
C1286     Br1298   1.928       .  S
C1287      C1288   1.409       .  A
C1287     Br1302   1.930       .  S
C1288      C1291   1.491       .  S
C1288      C1289   1.409       .  A
C1289      C1290   1.410       .  A
C1289     Br1297   1.931       .  S
C1290     Br1301   1.930       .  S
C1291      C1292   1.409       .  A
C1291      C1296   1.409       .  A
C1292      C1293   1.411       .  A
C1292     Br1303   1.929       .  S
C1293      C1294   1.416       .  A
C1293     Br1299   1.932       .  S
C1294      C1295   1.414       .  A
C1295      C1296   1.407       .  A
C1295     Br1304   1.933       .  S
C1296     Br1300   1.930       .  S
C1305      C1306   1.417       .  A
C1305      C1310   1.419       .  A
C1306      C1307   1.410       .  A
C1306     Br1318   1.931       .  S
C1307      C1308   1.407       .  A
C1307     Br1322   1.930       .  S
C1308      C1311   1.485       .  S
C1308      C1309   1.406       .  A
C1309      C1310   1.408       .  A
C1309     Br1317   1.934       .  S
C1310     Br1321   1.933       .  S
C1311      C1312   1.410       .  A
C1311      C1316   1.408       .  A
C1312      C1313   1.409       .  A
C1312     Br1323   1.928       .  S
C1313      C1314   1.409       .  A
C1313     Br1319   1.928       .  S
C1314      C1315   1.411       .  A
C1315      C1316   1.405       .  A
C1315     Br1324   1.931       .  S
C1316     Br1320   1.930       .  S
C1325      C1326   1.416       .  A
C1325      C1330   1.416       .  A
C1326      C1327   1.413       .  A
C1326     Br1338   1.930       .  S
C1327      C1328   1.409       .  A
C1327     Br1342   1.929       .  S
C1328      C1331   1.493       .  S
C1328      C1329   1.409       .  A
C1329      C1330   1.410       .  A
C1329     Br1337   1.931       .  S
C1330     Br1341   1.931       .  S
C1331      C1332   1.412       .  A
C1331      C1336   1.409       .  A
C1332      C1333   1.413       .  A
C1332     Br1343   1.928       .  S
C1333      C1334   1.411       .  A
C1333     Br1339   1.929       .  S
C1334      C1335   1.412       .  A
C1335      C1336   1.409       .  A
C1335     Br1344   1.932       .  S
C1336     Br1340   1.929       .  S
C1345      C1346   1.411       .  A
C1345      C1350   1.411       .  A
C1346      C1347   1.411       .  A
C1346     Br1358   1.929       .  S
C1347      C1348   1.410       .  A
C1347     Br1362   1.929       .  S
C1348      C1351   1.491       .  S
C1348      C1349   1.410       .  A
C1349      C1350   1.410       .  A
C1349     Br1357   1.930       .  S
C1350     Br1361   1.930       .  S
C1351      C1352   1.409       .  A
C1351      C1356   1.407       .  A
C1352      C1353   1.412       .  A
C1352     Br1363   1.929       .  S
C1353      C1354   1.416       .  A
C1353     Br1359   1.930       .  S
C1354      C1355   1.416       .  A
C1355      C1356   1.409       .  A
C1355     Br1364   1.933       .  S
C1356     Br1360   1.930       .  S
C1365      C1366   1.413       .  A
C1365      C1370   1.415       .  A
C1366      C1367   1.411       .  A
C1366     Br1378   1.929       .  S
C1367      C1368   1.409       .  A
C1367     Br1382   1.929   1_455  S
C1368      C1371   1.487   1_455  S
C1368      C1369   1.407       .  A
C1369      C1370   1.407       .  A
C1369     Br1377   1.931       .  S
C1370     Br1381   1.932       .  S
C1371      C1372   1.410       .  A
C1371      C1376   1.408   1_655  A
C1372      C1373   1.411       .  A
C1372     Br1383   1.928       .  S
C1373      C1374   1.412       .  A
C1373     Br1379   1.930       .  S
C1374      C1375   1.412   1_655  A
C1375      C1376   1.406       .  A
C1375     Br1384   1.930       .  S
C1376     Br1380   1.931       .  S
C1385      C1386   1.420       .  A
C1385      C1390   1.424       .  A
C1386      C1387   1.410       .  A
C1386     Br1398   1.934       .  S
C1387      C1388   1.407       .  A
C1387     Br1402   1.931       .  S
C1388      C1391   1.488       .  S
C1388      C1389   1.405       .  A
C1389      C1390   1.410       .  A
C1389     Br1397   1.933       .  S
C1390     Br1401   1.933       .  S
C1391      C1392   1.409       .  A
C1391      C1396   1.406       .  A
C1392      C1393   1.412       .  A
C1392     Br1403   1.929       .  S
C1393      C1394   1.415       .  A
C1393     Br1399   1.929       .  S
C1394      C1395   1.416       .  A
C1395      C1396   1.407       .  A
C1395     Br1404   1.928       .  S
C1396     Br1400   1.932       .  S
C1405      C1406   1.415       .  A
C1405      C1410   1.413       .  A
C1406      C1407   1.412       .  A
C1406     Br1418   1.929       .  S
C1407      C1408   1.408       .  A
C1407     Br1422   1.929       .  S
C1408      C1411   1.486       .  S
C1408      C1409   1.407       .  A
C1409      C1410   1.406       .  A
C1409     Br1417   1.933       .  S
C1410     Br1421   1.923       .  S
C1411      C1412   1.407       .  A
C1411      C1416   1.409       .  A
C1412      C1413   1.406       .  A
C1412     Br1423   1.931       .  S
C1413      C1414   1.416       .  A
C1413     Br1419   1.933       .  S
C1414      C1415   1.416       .  A
C1415      C1416   1.411       .  A
C1415     Br1424   1.931       .  S
C1416     Br1420   1.929       .  S
C1425      C1426   1.418       .  A
C1425      C1430   1.417       .  A
C1426      C1427   1.409       .  A
C1426     Br1438   1.933       .  S
C1427      C1428   1.407       .  A
C1427     Br1442   1.932       .  S
C1428      C1431   1.491       .  S
C1428      C1429   1.409       .  A
C1429      C1430   1.412       .  A
C1429     Br1437   1.930       .  S
C1430     Br1441   1.930       .  S
C1431      C1432   1.411       .  A
C1431      C1436   1.410       .  A
C1432      C1433   1.409       .  A
C1432     Br1443   1.930       .  S
C1433      C1434   1.412       .  A
C1433     Br1439   1.932       .  S
C1434      C1435   1.412       .  A
C1435      C1436   1.410       .  A
C1435     Br1444   1.929       .  S
C1436     Br1440   1.929       .  S
C1445      C1446   1.415       .  A
C1445      C1450   1.416       .  A
C1446      C1447   1.406       .  A
C1446     Br1458   1.932       .  S
C1447      C1448   1.406       .  A
C1447     Br1462   1.931       .  S
C1448      C1451   1.485       .  S
C1448      C1449   1.408       .  A
C1449      C1450   1.410       .  A
C1449     Br1457   1.931       .  S
C1450     Br1461   1.931       .  S
C1451      C1452   1.409       .  A
C1451      C1456   1.410       .  A
C1452      C1453   1.407       .  A
C1452     Br1463   1.929       .  S
C1453      C1454   1.411       .  A
C1453     Br1459   1.932       .  S
C1454      C1455   1.409       .  A
C1455      C1456   1.408       .  A
C1455     Br1464   1.929       .  S
C1456     Br1460   1.929       .  S
C1465      C1466   1.418       .  A
C1465      C1470   1.417       .  A
C1466      C1467   1.411       .  A
C1466     Br1478   1.930       .  S
C1467      C1468   1.407       .  A
C1467     Br1482   1.931       .  S
C1468      C1471   1.490       .  S
C1468      C1469   1.408       .  A
C1469      C1470   1.411       .  A
C1469     Br1477   1.931       .  S
C1470     Br1481   1.932       .  S
C1471      C1472   1.409       .  A
C1471      C1476   1.412       .  A
C1472      C1473   1.407       .  A
C1472     Br1483   1.928       .  S
C1473      C1474   1.410       .  A
C1473     Br1479   1.932       .  S
C1474      C1475   1.410       .  A
C1475      C1476   1.411       .  A
C1475     Br1484   1.930       .  S
C1476     Br1480   1.929       .  S
C1485      C1486   1.410       .  A
C1485      C1490   1.414       .  A
C1486      C1487   1.406       .  A
C1486     Br1498   1.922       .  S
C1487      C1488   1.408       .  A
C1487     Br1502   1.933       .  S
C1488      C1491   1.487       .  S
C1488      C1489   1.409       .  A
C1489      C1490   1.412       .  A
C1489     Br1497   1.928       .  S
C1490     Br1501   1.931       .  S
C1491      C1492   1.409       .  A
C1491      C1496   1.409       .  A
C1492      C1493   1.409       .  A
C1492     Br1503   1.929       .  S
C1493      C1494   1.412       .  A
C1493     Br1499   1.930       .  S
C1494      C1495   1.411       .  A
C1495      C1496   1.409       .  A
C1495     Br1504   1.930       .  S
C1496     Br1500   1.929       .  S
C1505      C1506   1.415       .  A
C1505      C1510   1.415       .  A
C1506      C1507   1.411       .  A
C1506     Br1518   1.931       .  S
C1507      C1508   1.409       .  A
C1507     Br1522   1.929       .  S
C1508      C1511   1.491       .  S
C1508      C1509   1.409       .  A
C1509      C1510   1.410       .  A
C1509     Br1517   1.931       .  S
C1510     Br1521   1.931       .  S
C1511      C1512   1.410       .  A
C1511      C1516   1.408       .  A
C1512      C1513   1.413       .  A
C1512     Br1523   1.928       .  S
C1513      C1514   1.414       .  A
C1513     Br1519   1.929       .  S
C1514      C1515   1.414       .  A
C1515      C1516   1.408       .  A
C1515     Br1524   1.927       .  S
C1516     Br1520   1.932       .  S
C1525      C1526   1.416       .  A
C1525      C1530   1.414       .  A
C1526      C1527   1.408       .  A
C1526     Br1538   1.933       .  S
C1527      C1528   1.407       .  A
C1527     Br1542   1.931       .  S
C1528      C1531   1.490       .  S
C1528      C1529   1.410       .  A
C1529      C1530   1.412       .  A
C1529     Br1537   1.929       .  S
C1530     Br1541   1.930       .  S
C1531      C1532   1.409       .  A
C1531      C1536   1.411       .  A
C1532      C1533   1.408       .  A
C1532     Br1543   1.931       .  S
C1533      C1534   1.410       .  A
C1533     Br1539   1.925       .  S
C1534      C1535   1.411       .  A
C1535      C1536   1.412       .  A
C1535     Br1544   1.929       .  S
C1536     Br1540   1.928       .  S
C1545      C1546   1.414       .  A
C1545      C1550   1.413       .  A
C1546      C1547   1.411       .  A
C1546     Br1558   1.930       .  S
C1547      C1548   1.409       .  A
C1547     Br1562   1.928       .  S
C1548      C1551   1.487   1_545  S
C1548      C1549   1.408       .  A
C1549      C1550   1.406       .  A
C1549     Br1557   1.931       .  S
C1550     Br1561   1.933       .  S
C1551      C1552   1.408       .  A
C1551      C1556   1.407   1_565  A
C1552      C1553   1.410       .  A
C1552     Br1563   1.930       .  S
C1553      C1554   1.414       .  A
C1553     Br1559   1.929       .  S
C1554      C1555   1.415   1_565  A
C1555      C1556   1.408       .  A
C1555     Br1564   1.931       .  S
C1556     Br1560   1.931       .  S
C1565      C1566   1.413       .  A
C1565      C1570   1.415       .  A
C1566      C1567   1.409       .  A
C1566     Br1578   1.931       .  S
C1567      C1568   1.409       .  A
C1567     Br1582   1.930       .  S
C1568      C1571   1.484       .  S
C1568      C1569   1.407       .  A
C1569      C1570   1.406       .  A
C1569     Br1577   1.931       .  S
C1570     Br1581   1.931       .  S
C1571      C1572   1.408       .  A
C1571      C1576   1.409       .  A
C1572      C1573   1.408       .  A
C1572     Br1583   1.929       .  S
C1573      C1574   1.411       .  A
C1573     Br1579   1.929       .  S
C1574      C1575   1.411       .  A
C1575      C1576   1.407       .  A
C1575     Br1584   1.930       .  S
C1576     Br1580   1.931       .  S
C1585      C1586   1.412       .  A
C1585      C1590   1.412       .  A
C1586      C1587   1.409       .  A
C1586     Br1598   1.930       .  S
C1587      C1588   1.410       .  A
C1587     Br1602   1.930       .  S
C1588      C1591   1.486       .  S
C1588      C1589   1.408       .  A
C1589      C1590   1.407       .  A
C1589     Br1597   1.929       .  S
C1590     Br1601   1.931       .  S
C1591      C1592   1.407       .  A
C1591      C1596   1.409       .  A
C1592      C1593   1.410       .  A
C1592     Br1603   1.929       .  S
C1593      C1594   1.415       .  A
C1593     Br1599   1.931       .  S
C1594      C1595   1.413       .  A
C1595      C1596   1.408       .  A
C1595     Br1604   1.930       .  S
C1596     Br1600   1.932       .  S
C1605      C1606   1.416       .  A
C1605      C1610   1.415       .  A
C1606      C1607   1.411       .  A
C1606     Br1618   1.929       .  S
C1607      C1608   1.408       .  A
C1607     Br1622   1.930       .  S
C1608      C1611   1.489       .  S
C1608      C1609   1.408       .  A
C1609      C1610   1.408       .  A
C1609     Br1617   1.932       .  S
C1610     Br1621   1.932       .  S
C1611      C1612   1.409       .  A
C1611      C1616   1.409       .  A
C1612      C1613   1.409       .  A
C1612     Br1623   1.930       .  S
C1613      C1614   1.413       .  A
C1613     Br1619   1.930       .  S
C1614      C1615   1.414       .  A
C1615      C1616   1.409       .  A
C1615     Br1624   1.931       .  S
C1616     Br1620   1.930       .  S
C1625      C1626   1.410       .  A
C1625      C1630   1.412       .  A
C1626      C1627   1.406       .  A
C1626     Br1638   1.932       .  S
C1627      C1628   1.408       .  A
C1627     Br1642   1.928       .  S
C1628      C1631   1.487       .  S
C1628      C1629   1.411       .  A
C1629      C1630   1.411       .  A
C1629     Br1637   1.930       .  S
C1630     Br1641   1.930       .  S
C1631      C1632   1.410       .  A
C1631      C1636   1.408       .  A
C1632      C1633   1.409       .  A
C1632     Br1643   1.931       .  S
C1633      C1634   1.412       .  A
C1633     Br1639   1.930       .  S
C1634      C1635   1.412       .  A
C1635      C1636   1.409       .  A
C1635     Br1644   1.930       .  S
C1636     Br1640   1.929       .  S
C1645      C1646   1.418       .  A
C1645      C1650   1.418       .  A
C1646      C1647   1.412       .  A
C1646     Br1658   1.932       .  S
C1647      C1648   1.409       .  A
C1647     Br1662   1.931       .  S
C1648      C1651   1.491       .  S
C1648      C1649   1.407       .  A
C1649      C1650   1.409       .  A
C1649     Br1657   1.931       .  S
C1650     Br1661   1.934       .  S
C1651      C1652   1.410       .  A
C1651      C1656   1.409       .  A
C1652      C1653   1.411       .  A
C1652     Br1663   1.929       .  S
C1653      C1654   1.412       .  A
C1653     Br1659   1.929       .  S
C1654      C1655   1.413       .  A
C1655      C1656   1.409       .  A
C1655     Br1664   1.930   1_556  S
C1656     Br1660   1.931       .  S
C1665      C1666   1.417       .  A
C1665      C1670   1.419       .  A
C1666      C1667   1.412       .  A
C1666     Br1678   1.930       .  S
C1667      C1668   1.408       .  A
C1667     Br1682   1.930       .  S
C1668      C1671   1.487       .  S
C1668      C1669   1.406       .  A
C1669      C1670   1.407       .  A
C1669     Br1677   1.932       .  S
C1670     Br1681   1.934       .  S
C1671      C1672   1.410       .  A
C1671      C1676   1.408       .  A
C1672      C1673   1.410       .  A
C1672     Br1683   1.930       .  S
C1673      C1674   1.412       .  A
C1673     Br1679   1.930       .  S
C1674      C1675   1.414       .  A
C1675      C1676   1.408       .  A
C1675     Br1684   1.932       .  S
C1676     Br1680   1.930       .  S
C1685      C1686   1.414       .  A
C1685      C1690   1.416       .  A
C1686      C1687   1.410       .  A
C1686     Br1698   1.930       .  S
C1687      C1688   1.409       .  A
C1687     Br1702   1.930       .  S
C1688      C1691   1.486       .  S
C1688      C1689   1.407       .  A
C1689      C1690   1.408       .  A
C1689     Br1697   1.931       .  S
C1690     Br1701   1.931       .  S
C1691      C1692   1.410       .  A
C1691      C1696   1.409       .  A
C1692      C1693   1.410       .  A
C1692     Br1703   1.928       .  S
C1693      C1694   1.411       .  A
C1693     Br1699   1.929       .  S
C1694      C1695   1.411       .  A
C1695      C1696   1.405       .  A
C1695     Br1704   1.934       .  S
C1696     Br1700   1.930       .  S
C1705      C1706   1.409       .  A
C1705      C1710   1.409       .  A
C1706      C1707   1.410       .  A
C1706     Br1718   1.928       .  S
C1707      C1708   1.411       .  A
C1707     Br1722   1.929       .  S
C1708      C1711   1.489       .  S
C1708      C1709   1.410       .  A
C1709      C1710   1.408       .  A
C1709     Br1717   1.928       .  S
C1710     Br1721   1.927       .  S
C1711      C1712   1.408       .  A
C1711      C1716   1.407       .  A
C1712      C1713   1.413       .  A
C1712     Br1723   1.929       .  S
C1713      C1714   1.416       .  A
C1713     Br1719   1.929       .  S
C1714      C1715   1.419       .  A
C1715      C1716   1.408       .  A
C1715     Br1724   1.934       .  S
C1716     Br1720   1.933       .  S
C1725      C1726   1.411       .  A
C1725      C1730   1.410       .  A
C1726      C1727   1.411       .  A
C1726     Br1738   1.929       .  S
C1727      C1728   1.410       .  A
C1727     Br1742   1.929       .  S
C1728      C1731   1.486       .  S
C1728      C1729   1.408       .  A
C1729      C1730   1.405       .  A
C1729     Br1737   1.930       .  S
C1730     Br1741   1.931       .  S
C1731      C1732   1.408       .  A
C1731      C1736   1.406       .  A
C1732      C1733   1.410       .  A
C1732     Br1743   1.930       .  S
C1733      C1734   1.415       .  A
C1733     Br1739   1.930       .  S
C1734      C1735   1.419       .  A
C1735      C1736   1.407       .  A
C1735     Br1744   1.934       .  S
C1736     Br1740   1.932       .  S
C1745      C1746   1.418   1_556  A
C1745      C1750   1.415       .  A
C1746      C1747   1.408       .  A
C1746     Br1758   1.934       .  S
C1747      C1748   1.407   1_554  A
C1747     Br1762   1.932       .  S
C1748      C1751   1.486   1_556  S
C1748      C1749   1.408       .  A
C1749      C1750   1.409       .  A
C1749     Br1757   1.930       .  S
C1750     Br1761   1.932       .  S
C1751      C1752   1.407       .  A
C1751      C1756   1.409       .  A
C1752      C1753   1.407       .  A
C1752     Br1763   1.932   1_554  S
C1753      C1754   1.417       .  A
C1753     Br1759   1.934       .  S
C1754      C1755   1.415       .  A
C1755      C1756   1.410       .  A
C1755     Br1764   1.931       .  S
C1756     Br1760   1.930       .  S
C1765      C1766   1.414       .  A
C1765      C1770   1.416       .  A
C1766      C1767   1.410       .  A
C1766     Br1778   1.931       .  S
C1767      C1768   1.410       .  A
C1767     Br1782   1.931       .  S
C1768      C1771   1.488       .  S
C1768      C1769   1.406       .  A
C1769      C1770   1.409       .  A
C1769     Br1777   1.930       .  S
C1770     Br1781   1.931       .  S
C1771      C1772   1.409       .  A
C1771      C1776   1.410       .  A
C1772      C1773   1.409       .  A
C1772     Br1783   1.928       .  S
C1773      C1774   1.410       .  A
C1773     Br1779   1.926       .  S
C1774      C1775   1.408       .  A
C1775      C1776   1.409       .  A
C1775     Br1784   1.926       .  S
C1776     Br1780   1.929       .  S
C1785      C1786   1.414       .  A
C1785      C1790   1.415       .  A
C1786      C1787   1.408       .  A
C1786     Br1798   1.931       .  S
C1787      C1788   1.408       .  A
C1787     Br1802   1.930       .  S
C1788      C1791   1.488       .  S
C1788      C1789   1.409       .  A
C1789      C1790   1.411       .  A
C1789     Br1797   1.930       .  S
C1790     Br1801   1.931       .  S
C1791      C1792   1.408       .  A
C1791      C1796   1.409       .  A
C1792      C1793   1.410       .  A
C1792     Br1803   1.930       .  S
C1793      C1794   1.414       .  A
C1793     Br1799   1.929       .  S
C1794      C1795   1.412       .  A
C1795      C1796   1.409       .  A
C1795     Br1804   1.931       .  S
C1796     Br1800   1.929       .  S
C1805      C1806   1.419       .  A
C1805      C1810   1.416       .  A
C1806      C1807   1.409       .  A
C1806     Br1818   1.933       .  S
C1807      C1808   1.408       .  A
C1807     Br1822   1.933       .  S
C1808      C1811   1.488       .  S
C1808      C1809   1.407       .  A
C1809      C1810   1.410       .  A
C1809     Br1817   1.929       .  S
C1810     Br1821   1.930       .  S
C1811      C1812   1.410       .  A
C1811      C1816   1.410       .  A
C1812      C1813   1.408       .  A
C1812     Br1823   1.929       .  S
C1813      C1814   1.410       .  A
C1813     Br1819   1.931       .  S
C1814      C1815   1.410       .  A
C1815      C1816   1.409       .  A
C1815     Br1824   1.930       .  S
C1816     Br1820   1.929       .  S
C1825      C1826   1.420       .  A
C1825      C1830   1.417       .  A
C1826      C1827   1.409       .  A
C1826     Br1838   1.931       .  S
C1827      C1828   1.405       .  A
C1827     Br1842   1.932       .  S
C1828      C1831   1.487       .  S
C1828      C1829   1.408       .  A
C1829      C1830   1.411       .  A
C1829     Br1837   1.931       .  S
C1830     Br1841   1.930       .  S
C1831      C1832   1.409       .  A
C1831      C1836   1.409       .  A
C1832      C1833   1.408       .  A
C1832     Br1843   1.930       .  S
C1833      C1834   1.412       .  A
C1833     Br1839   1.931       .  S
C1834      C1835   1.412       .  A
C1835      C1836   1.409       .  A
C1835     Br1844   1.928       .  S
C1836     Br1840   1.929       .  S
C1845      C1846   1.410       .  A
C1845      C1850   1.411       .  A
C1846      C1847   1.407       .  A
C1846     Br1858   1.931       .  S
C1847      C1848   1.410       .  A
C1847     Br1862   1.930       .  S
C1848      C1851   1.487       .  S
C1848      C1849   1.410       .  A
C1849      C1850   1.409       .  A
C1849     Br1857   1.928       .  S
C1850     Br1861   1.931       .  S
C1851      C1852   1.408       .  A
C1851      C1856   1.409       .  A
C1852      C1853   1.408       .  A
C1852     Br1863   1.931       .  S
C1853      C1854   1.413       .  A
C1853     Br1859   1.929       .  S
C1854      C1855   1.413       .  A
C1855      C1856   1.410       .  A
C1855     Br1864   1.929       .  S
C1856     Br1860   1.930       .  S
C1865      C1866   1.413       .  A
C1865      C1870   1.410       .  A
C1866      C1867   1.409       .  A
C1866     Br1878   1.930       .  S
C1867      C1868   1.409       .  A
C1867     Br1882   1.930       .  S
C1868      C1871   1.487       .  S
C1868      C1869   1.410       .  A
C1869      C1870   1.408       .  A
C1869     Br1877   1.929       .  S
C1870     Br1881   1.930       .  S
C1871      C1872   1.409       .  A
C1871      C1876   1.409       .  A
C1872      C1873   1.408       .  A
C1872     Br1883   1.930       .  S
C1873      C1874   1.413       .  A
C1873     Br1879   1.931       .  S
C1874      C1875   1.414       .  A
C1875      C1876   1.409       .  A
C1875     Br1884   1.929       .  S
C1876     Br1880   1.931       .  S
C1885      C1886   1.419       .  A
C1885      C1890   1.421       .  A
C1886      C1887   1.412       .  A
C1886     Br1898   1.932       .  S
C1887      C1888   1.408       .  A
C1887     Br1902   1.930       .  S
C1888      C1891   1.490       .  S
C1888      C1889   1.407       .  A
C1889      C1890   1.409       .  A
C1889     Br1897   1.932       .  S
C1890     Br1901   1.935       .  S
C1891      C1892   1.410       .  A
C1891      C1896   1.409       .  A
C1892      C1893   1.412       .  A
C1892     Br1903   1.929       .  S
C1893      C1894   1.414       .  A
C1893     Br1899   1.930       .  S
C1894      C1895   1.414       .  A
C1895      C1896   1.408       .  A
C1895     Br1904   1.931       .  S
C1896     Br1900   1.931       .  S
C1905      C1906   1.415       .  A
C1905      C1910   1.416       .  A
C1906      C1907   1.409       .  A
C1906     Br1918   1.930       .  S
C1907      C1908   1.408       .  A
C1907     Br1922   1.930       .  S
C1908      C1911   1.485       .  S
C1908      C1909   1.408       .  A
C1909      C1910   1.407       .  A
C1909     Br1917   1.932       .  S
C1910     Br1921   1.931       .  S
C1911      C1912   1.409       .  A
C1911      C1916   1.408       .  A
C1912      C1913   1.409       .  A
C1912     Br1923   1.930       .  S
C1913      C1914   1.412       .  A
C1913     Br1919   1.930       .  S
C1914      C1915   1.413       .  A
C1915      C1916   1.407       .  A
C1915     Br1924   1.930       .  S
C1916     Br1920   1.931       .  S
C1925      C1926   1.410       .  A
C1925      C1930   1.412       .  A
C1926      C1927   1.409       .  A
C1926     Br1938   1.927       .  S
C1927      C1928   1.411       .  A
C1927     Br1942   1.930       .  S
C1928      C1931   1.489       .  S
C1928      C1929   1.410       .  A
C1929      C1930   1.407       .  A
C1929     Br1937   1.931       .  S
C1930     Br1941   1.933       .  S
C1931      C1932   1.410       .  A
C1931      C1936   1.409       .  A
C1932      C1933   1.411       .  A
C1932     Br1943   1.931       .  S
C1933      C1934   1.417       .  A
C1933     Br1939   1.932       .  S
C1934      C1935   1.415       .  A
C1935      C1936   1.406       .  A
C1935     Br1944   1.933       .  S
C1936     Br1940   1.933       .  S
C1945      C1946   1.419       .  A
C1945      C1950   1.414       .  A
C1946      C1947   1.408       .  A
C1946     Br1958   1.935       .  S
C1947      C1948   1.407       .  A
C1947     Br1962   1.931       .  S
C1948      C1951   1.489       .  S
C1948      C1949   1.410       .  A
C1949      C1950   1.410       .  A
C1949     Br1957   1.931       .  S
C1950     Br1961   1.931       .  S
C1951      C1952   1.409       .  A
C1951      C1956   1.410       .  A
C1952      C1953   1.409       .  A
C1952     Br1963   1.931       .  S
C1953      C1954   1.413       .  A
C1953     Br1959   1.932       .  S
C1954      C1955   1.412       .  A
C1955      C1956   1.411       .  A
C1955     Br1964   1.928       .  S
C1956     Br1960   1.930       .  S
C1965      C1966   1.414       .  A
C1965      C1970   1.415       .  A
C1966      C1967   1.410       .  A
C1966     Br1978   1.930       .  S
C1967      C1968   1.408       .  A
C1967     Br1982   1.930       .  S
C1968      C1971   1.485       .  S
C1968      C1969   1.407       .  A
C1969      C1970   1.406       .  A
C1969     Br1977   1.932       .  S
C1970     Br1981   1.933       .  S
C1971      C1972   1.409   1_545  A
C1971      C1976   1.407       .  A
C1972      C1973   1.409       .  A
C1972     Br1983   1.930       .  S
C1973      C1974   1.412       .  A
C1973     Br1979   1.931       .  S
C1974      C1975   1.414   1_565  A
C1975      C1976   1.407       .  A
C1975     Br1984   1.932       .  S
C1976     Br1980   1.930       .  S
C1985      C1986   1.417       .  A
C1985      C1990   1.415       .  A
C1986      C1987   1.410       .  A
C1986     Br1998   1.929       .  S
C1987      C1988   1.407       .  A
C1987     Br2002   1.931       .  S
C1988      C1991   1.492       .  S
C1988      C1989   1.410       .  A
C1989      C1990   1.412       .  A
C1989     Br1997   1.930       .  S
C1990     Br2001   1.931       .  S
C1991      C1992   1.411       .  A
C1991      C1996   1.411       .  A
C1992      C1993   1.410       .  A
C1992     Br2003   1.929       .  S
C1993      C1994   1.409       .  A
C1993     Br1999   1.929       .  S
C1994      C1995   1.410       .  A
C1995      C1996   1.411       .  A
C1995     Br2004   1.930       .  S
C1996     Br2000   1.928       .  S
C2005      C2006   1.412       .  A
C2005      C2010   1.411       .  A
C2006      C2007   1.407       .  A
C2006     Br2018   1.932       .  S
C2007      C2008   1.409       .  A
C2007     Br2022   1.929       .  S
C2008      C2011   1.486       .  S
C2008      C2009   1.409       .  A
C2009      C2010   1.409       .  A
C2009     Br2017   1.929       .  S
C2010     Br2021   1.929       .  S
C2011      C2012   1.406       .  A
C2011      C2016   1.407       .  A
C2012      C2013   1.409       .  A
C2012     Br2023   1.930       .  S
C2013      C2014   1.419       .  A
C2013     Br2019   1.933       .  S
C2014      C2015   1.417       .  A
C2015      C2016   1.409       .  A
C2015     Br2024   1.931       .  S
C2016     Br2020   1.932       .  S
C2025      C2026   1.413       .  A
C2025      C2030   1.413       .  A
C2026      C2027   1.410       .  A
C2026     Br2038   1.929       .  S
C2027      C2028   1.408       .  A
C2027     Br2042   1.929       .  S
C2028      C2031   1.486       .  S
C2028      C2029   1.409       .  A
C2029      C2030   1.408       .  A
C2029     Br2037   1.932       .  S
C2030     Br2041   1.928       .  S
C2031      C2032   1.411       .  A
C2031      C2036   1.407       .  A
C2032      C2033   1.412       .  A
C2032     Br2043   1.928       .  S
C2033      C2034   1.410       .  A
C2033     Br2039   1.928       .  S
C2034      C2035   1.410       .  A
C2035      C2036   1.404       .  A
C2035     Br2044   1.927       .  S
C2036     Br2040   1.931       .  S
C2045      C2046   1.411       .  A
C2045      C2050   1.411       .  A
C2046      C2047   1.409       .  A
C2046     Br2058   1.929       .  S
C2047      C2048   1.410       .  A
C2047     Br2062   1.929       .  S
C2048      C2051   1.493       .  S
C2048      C2049   1.411       .  A
C2049      C2050   1.412       .  A
C2049     Br2057   1.927       .  S
C2050     Br2061   1.929       .  S
C2051      C2052   1.407       .  A
C2051      C2056   1.409       .  A
C2052      C2053   1.411       .  A
C2052     Br2063   1.932       .  S
C2053      C2054   1.420       .  A
C2053     Br2059   1.932       .  S
C2054      C2055   1.418       .  A
C2055      C2056   1.414       .  A
C2055     Br2064   1.929       .  S
C2056     Br2060   1.930       .  S
C2065      C2066   1.415       .  A
C2065      C2070   1.416       .  A
C2066      C2067   1.410       .  A
C2066     Br2078   1.931       .  S
C2067      C2068   1.409       .  A
C2067     Br2082   1.930       .  S
C2068      C2071   1.494       .  S
C2068      C2069   1.410       .  A
C2069      C2070   1.412       .  A
C2069     Br2077   1.931       .  S
C2070     Br2081   1.932       .  S
C2071      C2072   1.409       .  A
C2071      C2076   1.408       .  A
C2072      C2073   1.411       .  A
C2072     Br2083   1.930       .  S
C2073      C2074   1.416       .  A
C2073     Br2079   1.931       .  S
C2074      C2075   1.422       .  A
C2075      C2076   1.412       .  A
C2075     Br2084   1.932       .  S
C2076     Br2080   1.933       .  S
C2085      C2086   1.413       .  A
C2085      C2090   1.412       .  A
C2086      C2087   1.409       .  A
C2086     Br2098   1.929       .  S
C2087      C2088   1.409       .  A
C2087     Br2102   1.930       .  S
C2088      C2091   1.490       .  S
C2088      C2089   1.411       .  A
C2089      C2090   1.411       .  A
C2089     Br2097   1.931       .  S
C2090     Br2101   1.930       .  S
C2091      C2092   1.411       .  A
C2091      C2096   1.409       .  A
C2092      C2093   1.410       .  A
C2092     Br2103   1.930       .  S
C2093      C2094   1.413       .  A
C2093     Br2099   1.933       .  S
C2094      C2095   1.412       .  A
C2095      C2096   1.408       .  A
C2095     Br2104   1.930       .  S
C2096     Br2100   1.930       .  S
C2105      C2106   1.414       .  A
C2105      C2110   1.412       .  A
C2106      C2107   1.408       .  A
C2106     Br2118   1.932       .  S
C2107      C2108   1.408       .  A
C2107     Br2122   1.930       .  S
C2108      C2111   1.487       .  S
C2108      C2109   1.410       .  A
C2109      C2110   1.410       .  A
C2109     Br2117   1.929       .  S
C2110     Br2121   1.929       .  S
C2111      C2112   1.409       .  A
C2111      C2116   1.409       .  A
C2112      C2113   1.408       .  A
C2112     Br2123   1.929       .  S
C2113      C2114   1.410       .  A
C2113     Br2119   1.930       .  S
C2114      C2115   1.410       .  A
C2115      C2116   1.409       .  A
C2115     Br2124   1.926       .  S
C2116     Br2120   1.929       .  S
C2125      C2126   1.417       .  A
C2125      C2130   1.415       .  A
C2126      C2127   1.410       .  A
C2126     Br2138   1.931       .  S
C2127      C2128   1.409       .  A
C2127     Br2142   1.932       .  S
C2128      C2131   1.491       .  S
C2128      C2129   1.409       .  A
C2129      C2130   1.411       .  A
C2129     Br2137   1.929       .  S
C2130     Br2141   1.930       .  S
C2131      C2132   1.409       .  A
C2131      C2136   1.409       .  A
C2132      C2133   1.410       .  A
C2132     Br2143   1.931       .  S
C2133      C2134   1.417       .  A
C2133     Br2139   1.934       .  S
C2134      C2135   1.414       .  A
C2135      C2136   1.410       .  A
C2135     Br2144   1.930       .  S
C2136     Br2140   1.929       .  S
C2145      C2146   1.413       .  A
C2145      C2150   1.413       .  A
C2146      C2147   1.412       .  A
C2146     Br2158   1.929       .  S
C2147      C2148   1.410       .  A
C2147     Br2162   1.929       .  S
C2148      C2151   1.494       .  S
C2148      C2149   1.410       .  A
C2149      C2150   1.411       .  A
C2149     Br2157   1.930       .  S
C2150     Br2161   1.930       .  S
C2151      C2152   1.408       .  A
C2151      C2156   1.407       .  A
C2152      C2153   1.413       .  A
C2152     Br2163   1.929       .  S
C2153      C2154   1.418       .  A
C2153     Br2159   1.931       .  S
C2154      C2155   1.421       .  A
C2155      C2156   1.410       .  A
C2155     Br2164   1.934       .  S
C2156     Br2160   1.932       .  S
C2165      C2166   1.417       .  A
C2165      C2170   1.416       .  A
C2166      C2167   1.408       .  A
C2166     Br2178   1.934       .  S
C2167      C2168   1.409       .  A
C2167     Br2182   1.932       .  S
C2168      C2171   1.493       .  S
C2168      C2169   1.411       .  A
C2169      C2170   1.412       .  A
C2169     Br2177   1.930       .  S
C2170     Br2181   1.931       .  S
C2171      C2172   1.411       .  A
C2171      C2176   1.412       .  A
C2172      C2173   1.408       .  A
C2172     Br2183   1.931       .  S
C2173      C2174   1.412       .  A
C2173     Br2179   1.932       .  S
C2174      C2175   1.411       .  A
C2175      C2176   1.412       .  A
C2175     Br2184   1.928       .  S
C2176     Br2180   1.930       .  S
C2185      C2186   1.410       .  A
C2185      C2190   1.411       .  A
C2186      C2187   1.409       .  A
C2186     Br2198   1.930       .  S
C2187      C2188   1.410       .  A
C2187     Br2202   1.929       .  S
C2188      C2191   1.487       .  S
C2188      C2189   1.409       .  A
C2189      C2190   1.408       .  A
C2189     Br2197   1.929       .  S
C2190     Br2201   1.931       .  S
C2191      C2192   1.409       .  A
C2191      C2196   1.406       .  A
C2192      C2193   1.410       .  A
C2192     Br2203   1.930       .  S
C2193      C2194   1.415       .  A
C2193     Br2199   1.931       .  S
C2194      C2195   1.419       .  A
C2195      C2196   1.409       .  A
C2195     Br2204   1.933       .  S
C2196     Br2200   1.932       .  S
C2205      C2206   1.413       .  A
C2205      C2210   1.415       .  A
C2206      C2207   1.410       .  A
C2206     Br2218   1.929       .  S
C2207      C2208   1.409   1_556  A
C2207     Br2222   1.930   1_556  S
C2208      C2211   1.485       .  S
C2208      C2209   1.407       .  A
C2209      C2210   1.406   1_554  A
C2209     Br2217   1.932       .  S
C2210     Br2221   1.929       .  S
C2211      C2212   1.410       .  A
C2211      C2216   1.408   1_554  A
C2212      C2213   1.409       .  A
C2212     Br2223   1.929       .  S
C2213      C2214   1.412       .  A
C2213     Br2219   1.930       .  S
C2214      C2215   1.414       .  A
C2215      C2216   1.407   1_554  A
C2215     Br2224   1.932   1_554  S
C2216     Br2220   1.932       .  S
C2225      C2226   1.420       .  A
C2225      C2230   1.423       .  A
C2226      C2227   1.412       .  A
C2226     Br2238   1.932       .  S
C2227      C2228   1.408       .  A
C2227     Br2242   1.930       .  S
C2228      C2231   1.491       .  S
C2228      C2229   1.406       .  A
C2229      C2230   1.411       .  A
C2229     Br2237   1.933       .  S
C2230     Br2241   1.934       .  S
C2231      C2232   1.410       .  A
C2231      C2236   1.409       .  A
C2232      C2233   1.411       .  A
C2232     Br2243   1.930       .  S
C2233      C2234   1.412       .  A
C2233     Br2239   1.929       .  S
C2234      C2235   1.413       .  A
C2235      C2236   1.409       .  A
C2235     Br2244   1.932       .  S
C2236     Br2240   1.929       .  S
C2245      C2246   1.411       .  A
C2245      C2250   1.412       .  A
C2246      C2247   1.410       .  A
C2246     Br2258   1.930       .  S
C2247      C2248   1.411       .  A
C2247     Br2262   1.929       .  S
C2248      C2251   1.488       .  S
C2248      C2249   1.408       .  A
C2249      C2250   1.407       .  A
C2249     Br2257   1.930       .  S
C2250     Br2261   1.931       .  S
C2251      C2252   1.408       .  A
C2251      C2256   1.410       .  A
C2252      C2253   1.409       .  A
C2252     Br2263   1.930       .  S
C2253      C2254   1.414       .  A
C2253     Br2259   1.931       .  S
C2254      C2255   1.413       .  A
C2255      C2256   1.409       .  A
C2255     Br2264   1.931       .  S
C2256     Br2260   1.930       .  S
C2265      C2266   1.416       .  A
C2265      C2270   1.418       .  A
C2266      C2267   1.411       .  A
C2266     Br2278   1.931       .  S
C2267      C2268   1.408       .  A
C2267     Br2282   1.929       .  S
C2268      C2271   1.489       .  S
C2268      C2269   1.408       .  A
C2269      C2270   1.408       .  A
C2269     Br2277   1.933       .  S
C2270     Br2281   1.933       .  S
C2271      C2272   1.406       .  A
C2271      C2276   1.410       .  A
C2272      C2273   1.407       .  A
C2272     Br2283   1.931       .  S
C2273      C2274   1.416       .  A
C2273     Br2279   1.928       .  S
C2274      C2275   1.415       .  A
C2275      C2276   1.413       .  A
C2275     Br2284   1.929       .  S
C2276     Br2280   1.930       .  S
C2285      C2286   1.410       .  A
C2285      C2290   1.410       .  A
C2286      C2287   1.408       .  A
C2286     Br2298   1.929       .  S
C2287      C2288   1.409       .  A
C2287     Br2302   1.928       .  S
C2288      C2291   1.481       .  S
C2288      C2289   1.408       .  A
C2289      C2290   1.404       .  A
C2289     Br2297   1.931       .  S
C2290     Br2301   1.932       .  S
C2291      C2292   1.408       .  A
C2291      C2296   1.406       .  A
C2292      C2293   1.406       .  A
C2292     Br2303   1.931       .  S
C2293      C2294   1.414       .  A
C2293     Br2299   1.932       .  S
C2294      C2295   1.416       .  A
C2295      C2296   1.407       .  A
C2295     Br2304   1.931       .  S
C2296     Br2300   1.931       .  S
C2305      C2306   1.411       .  A
C2305      C2310   1.410       .  A
C2306      C2307   1.408       .  A
C2306     Br2318   1.931       .  S
C2307      C2308   1.409       .  A
C2307     Br2322   1.929       .  S
C2308      C2311   1.487       .  S
C2308      C2309   1.410       .  A
C2309      C2310   1.408       .  A
C2309     Br2317   1.929       .  S
C2310     Br2321   1.931       .  S
C2311      C2312   1.410       .  A
C2311      C2316   1.408       .  A
C2312      C2313   1.409       .  A
C2312     Br2323   1.930       .  S
C2313      C2314   1.413       .  A
C2313     Br2319   1.931       .  S
C2314      C2315   1.413       .  A
C2315      C2316   1.408       .  A
C2315     Br2324   1.929       .  S
C2316     Br2320   1.930       .  S
C2325      C2326   1.415       .  A
C2325      C2330   1.414       .  A
C2326      C2327   1.410       .  A
C2326     Br2338   1.932       .  S
C2327      C2328   1.409       .  A
C2327     Br2342   1.929       .  S
C2328      C2331   1.486       .  S
C2328      C2329   1.408       .  A
C2329      C2330   1.406       .  A
C2329     Br2337   1.931       .  S
C2330     Br2341   1.932       .  S
C2331      C2332   1.408       .  A
C2331      C2336   1.407       .  A
C2332      C2333   1.409       .  A
C2332     Br2343   1.930       .  S
C2333      C2334   1.414       .  A
C2333     Br2339   1.930       .  S
C2334      C2335   1.415       .  A
C2335      C2336   1.409       .  A
C2335     Br2344   1.930       .  S
C2336     Br2340   1.932       .  S
C2345      C2346   1.413       .  A
C2345      C2350   1.413       .  A
C2346      C2347   1.408       .  A
C2346     Br2358   1.929       .  S
C2347      C2348   1.409       .  A
C2347     Br2362   1.931       .  S
C2348      C2351   1.489       .  S
C2348      C2349   1.410       .  A
C2349      C2350   1.410       .  A
C2349     Br2357   1.930       .  S
C2350     Br2361   1.931       .  S
C2351      C2352   1.411       .  A
C2351      C2356   1.409       .  A
C2352      C2353   1.409       .  A
C2352     Br2363   1.931       .  S
C2353      C2354   1.411       .  A
C2353     Br2359   1.929       .  S
C2354      C2355   1.412       .  A
C2355      C2356   1.409       .  A
C2355     Br2364   1.931       .  S
C2356     Br2360   1.930       .  S
C2365      C2366   1.414       .  A
C2365      C2370   1.416       .  A
C2366      C2367   1.411       .  A
C2366     Br2378   1.930       .  S
C2367      C2368   1.410       .  A
C2367     Br2382   1.930       .  S
C2368      C2371   1.491       .  S
C2368      C2369   1.409       .  A
C2369      C2370   1.410       .  A
C2369     Br2377   1.932       .  S
C2370     Br2381   1.932       .  S
C2371      C2372   1.410       .  A
C2371      C2376   1.411       .  A
C2372      C2373   1.409       .  A
C2372     Br2383   1.929       .  S
C2373      C2374   1.410       .  A
C2373     Br2379   1.926       .  S
C2374      C2375   1.412       .  A
C2375      C2376   1.410       .  A
C2375     Br2384   1.931       .  S
C2376     Br2380   1.930       .  S
C2385      C2386   1.415       .  A
C2385      C2390   1.417       .  A
C2386      C2387   1.410       .  A
C2386     Br2398   1.930       .  S
C2387      C2388   1.407       .  A
C2387     Br2402   1.930       .  S
C2388      C2391   1.486       .  S
C2388      C2389   1.408       .  A
C2389      C2390   1.408       .  A
C2389     Br2397   1.933       .  S
C2390     Br2401   1.931       .  S
C2391      C2392   1.410       .  A
C2391      C2396   1.408       .  A
C2392      C2393   1.410       .  A
C2392     Br2403   1.928       .  S
C2393      C2394   1.412       .  A
C2393     Br2399   1.930       .  S
C2394      C2395   1.411       .  A
C2395      C2396   1.405       .  A
C2395     Br2404   1.929       .  S
C2396     Br2400   1.931       .  S
C2405      C2406   1.418       .  A
C2405      C2410   1.418       .  A
C2406      C2407   1.407       .  A
C2406     Br2418   1.932       .  S
C2407      C2408   1.405       .  A
C2407     Br2422   1.931       .  S
C2408      C2411   1.488       .  S
C2408      C2409   1.408       .  A
C2409      C2410   1.412       .  A
C2409     Br2417   1.931       .  S
C2410     Br2421   1.931       .  S
C2411      C2412   1.408       .  A
C2411      C2416   1.410       .  A
C2412      C2413   1.406       .  A
C2412     Br2423   1.931       .  S
C2413      C2414   1.414       .  A
C2413     Br2419   1.933       .  S
C2414      C2415   1.413       .  A
C2415      C2416   1.412       .  A
C2415     Br2424   1.929       .  S
C2416     Br2420   1.929       .  S
C2425      C2426   1.410       .  A
C2425      C2430   1.411       .  A
C2426      C2427   1.406       .  A
C2426     Br2438   1.927       .  S
C2427      C2428   1.409       .  A
C2427     Br2442   1.930       .  S
C2428      C2431   1.483       .  S
C2428      C2429   1.409       .  A
C2429      C2430   1.407       .  A
C2429     Br2437   1.930       .  S
C2430     Br2441   1.931       .  S
C2431      C2432   1.409       .  A
C2431      C2436   1.406       .  A
C2432      C2433   1.411       .  A
C2432     Br2443   1.930       .  S
C2433      C2434   1.417       .  A
C2433     Br2439   1.930       .  S
C2434      C2435   1.416       .  A
C2435      C2436   1.404       .  A
C2435     Br2444   1.933       .  S
C2436     Br2440   1.934       .  S
C2445      C2446   1.411       .  A
C2445      C2450   1.413       .  A
C2446      C2447   1.409       .  A
C2446     Br2458   1.931       .  S
C2447      C2448   1.410       .  A
C2447     Br2462   1.928       .  S
C2448      C2451   1.489       .  S
C2448      C2449   1.409       .  A
C2449      C2450   1.409       .  A
C2449     Br2457   1.929       .  S
C2450     Br2461   1.931       .  S
C2451      C2452   1.409       .  A
C2451      C2456   1.408       .  A
C2452      C2453   1.412       .  A
C2452     Br2463   1.929       .  S
C2453      C2454   1.415       .  A
C2453     Br2459   1.929       .  S
C2454      C2455   1.417       .  A
C2455      C2456   1.409       .  A
C2455     Br2464   1.933       .  S
C2456     Br2460   1.931       .  S
C2465      C2466   1.415       .  A
C2465      C2470   1.417       .  A
C2466      C2467   1.407       .  A
C2466     Br2478   1.931       .  S
C2467      C2468   1.407       .  A
C2467     Br2482   1.931       .  S
C2468      C2471   1.481       .  S
C2468      C2469   1.406       .  A
C2469      C2470   1.407       .  A
C2469     Br2477   1.931       .  S
C2470     Br2481   1.932       .  S
C2471      C2472   1.410       .  A
C2471      C2476   1.408       .  A
C2472      C2473   1.407       .  A
C2472     Br2483   1.929       .  S
C2473      C2474   1.408       .  A
C2473     Br2479   1.930       .  S
C2474      C2475   1.409       .  A
C2475      C2476   1.405       .  A
C2475     Br2484   1.932   1_556  S
C2476     Br2480   1.930       .  S
C2485      C2486   1.416       .  A
C2485      C2490   1.417       .  A
C2486      C2487   1.411       .  A
C2486     Br2498   1.932       .  S
C2487      C2488   1.411       .  A
C2487     Br2502   1.932       .  S
C2488      C2491   1.490       .  S
C2488      C2489   1.408       .  A
C2489      C2490   1.407       .  A
C2489     Br2497   1.934       .  S
C2490     Br2501   1.930       .  S
C2491      C2492   1.412       .  A
C2491      C2496   1.410       .  A
C2492      C2493   1.409       .  A
C2492     Br2503   1.931       .  S
C2493      C2494   1.412       .  A
C2493     Br2499   1.930       .  S
C2494      C2495   1.413       .  A
C2495      C2496   1.408       .  A
C2495     Br2504   1.933       .  S
C2496     Br2500   1.932       .  S
C2505      C2506   1.412       .  A
C2505      C2510   1.410   1_455  A
C2506      C2507   1.411       .  A
C2506     Br2518   1.930       .  S
C2507      C2508   1.411       .  A
C2507     Br2522   1.929       .  S
C2508      C2511   1.487       .  S
C2508      C2509   1.408   1_455  A
C2509      C2510   1.406       .  A
C2509     Br2517   1.930       .  S
C2510     Br2521   1.927       .  S
C2511      C2512   1.409       .  A
C2511      C2516   1.410   1_455  A
C2512      C2513   1.409   1_455  A
C2512     Br2523   1.929       .  S
C2513      C2514   1.412       .  A
C2513     Br2519   1.930       .  S
C2514      C2515   1.412       .  A
C2515      C2516   1.408       .  A
C2515     Br2524   1.932       .  S
C2516     Br2520   1.931       .  S
C2525      C2526   1.416       .  A
C2525      C2530   1.415       .  A
C2526      C2527   1.407       .  A
C2526     Br2538   1.933       .  S
C2527      C2528   1.407       .  A
C2527     Br2542   1.932       .  S
C2528      C2531   1.486       .  S
C2528      C2529   1.408       .  A
C2529      C2530   1.410       .  A
C2529     Br2537   1.929       .  S
C2530     Br2541   1.930       .  S
C2531      C2532   1.408       .  A
C2531      C2536   1.409       .  A
C2532      C2533   1.406       .  A
C2532     Br2543   1.930       .  S
C2533      C2534   1.412       .  A
C2533     Br2539   1.932       .  S
C2534      C2535   1.412       .  A
C2535      C2536   1.410       .  A
C2535     Br2544   1.929       .  S
C2536     Br2540   1.929       .  S
