geometry optimzed in LAMMPS
_audit_creation_date              2020-12-01 
_audit_creation_method            'lammps2cif' 
_symmetry_space_group_name_H-M    'P1' 
_symmetry_Int_Tables_number       1 
_symmetry_cell_setting            triclinic 
loop_ 
_symmetry_equiv_pos_as_xyz 
  x,y,z 
_cell_length_a                    33.40192583 
_cell_length_b                    33.269385515745086 
_cell_length_c                    33.349181496972285 
_cell_angle_alpha                 90.44401130115051 
_cell_angle_beta                  89.67243791879028 
_cell_angle_gamma                 88.31040729778438 
loop_ 
_atom_site_label 
_atom_site_type_symbol 
_atom_site_fract_x 
_atom_site_fract_y 
_atom_site_fract_z 
_atom_site_charge 
N1          N  0.31308256  0.21956878  0.48118456    -0.01200
C2          C  0.27931790  0.21312572  0.50239333     0.01400
C3          C  0.24654887  0.23161248  0.48471200    -0.21500
C4          C  0.26084751  0.25052812  0.45148358    -0.21700
C5          C  0.30184412  0.24375522  0.45086581     0.01300
H6          H  0.21576044  0.23161888  0.49501191     0.15100
H7          H  0.24299130  0.26579450  0.42912597     0.15100
N8          N  0.21081600  0.34607681  0.48064363    -0.01200
C9          C  0.23820920  0.34668024  0.44981055     0.01400
C10         C  0.27650451  0.34330937  0.46522544    -0.21500
C11         C  0.27284806  0.33784244  0.50567409    -0.21700
C12         C  0.23229234  0.33898713  0.51521392     0.01300
H13         H  0.30446128  0.34094713  0.44882750     0.15100
H14         H  0.29771085  0.33030806  0.52510298     0.15100
N15         N  0.21567109  0.52311562  0.34427009    -0.01200
C16         C  0.24147794  0.49127878  0.34173715     0.01400
C17         C  0.28020922  0.50303007  0.34805108    -0.21500
C18         C  0.27816012  0.54425764  0.35300125    -0.21700
C19         C  0.23820918  0.55591336  0.34995171     0.01300
H20         H  0.30722072  0.48444575  0.34512237     0.15100
H21         H  0.30340816  0.56388201  0.35407397     0.15100
N22         N  0.31852961  0.53447721  0.18098169    -0.01200
C23         C  0.31107152  0.50105527  0.20310476     0.01400
C24         C  0.29983489  0.51211603  0.24169517    -0.21500
C25         C  0.29980263  0.55308811  0.24366631    -0.21700
C26         C  0.31083093  0.56642642  0.20613339     0.01300
H27         H  0.29022689  0.49245013  0.26527648     0.15100
H28         H  0.29044510  0.57127035  0.26923649     0.15100
N29         N  0.50056395  0.21204597  0.31066589    -0.01200
C30         C  0.53709257  0.22840659  0.31311210     0.01400
C31         C  0.53346229  0.26978784  0.31385152    -0.21500
C32         C  0.49346813  0.27916377  0.30915309    -0.21700
C33         C  0.47397121  0.24295934  0.30574490     0.01300
H34         H  0.55756483  0.29078194  0.31245246     0.15100
H35         H  0.48095162  0.30926285  0.30572329     0.15100
N36         N  0.53157779  0.32242918  0.15845317    -0.01200
C37         C  0.49547785  0.30667721  0.16746256     0.01400
C38         C  0.49827424  0.28131470  0.19977022    -0.21500
C39         C  0.53720694  0.28129080  0.21161158    -0.21700
C40         C  0.55704440  0.30674741  0.18625144     0.01300
H41         H  0.47499603  0.26286908  0.21175520     0.15100
H42         H  0.55043000  0.26253709  0.23450381     0.15100
N43         N  0.19831101  0.33745945  0.98618983    -0.01200
C44         C  0.20172742  0.31357921  0.95239079     0.01400
C45         C  0.21085393  0.27430371  0.96359652    -0.21500
C46         C  0.21340347  0.27376199  0.00442808    -0.21700
C47         C  0.20603133  0.31263268  0.01775250     0.01300
H48         H  0.21771237  0.24890971  0.94405098     0.15100
H49         H  0.22181117  0.24802625  0.02238082     0.15100
N50         N  0.30762974  0.18086144  0.98292383    -0.01200
C51         C  0.28580101  0.17563622  0.94948282     0.01400
C52         C  0.24676203  0.16702625  0.95931897    -0.21500
C53         C  0.24421546  0.16842640  0.00060990    -0.21700
C54         C  0.28175922  0.17807465  0.01417055     0.01300
H55         H  0.22194204  0.16449448  0.93882132     0.15100
H56         H  0.21703988  0.16716933  0.01832733     0.15100
O57         O  0.12932503  0.32222837  0.72959950    -0.85900
C58         C  0.29011216  0.20335220  0.61190554     1.14100
O59         O  0.22062045  0.30782970  0.73327009    -1.33700
O60         O  0.20356831  0.17013527  0.67413030    -0.87400
O61         O  0.15586116  0.34769739  0.78554375    -0.88100
O62         O  0.20725790  0.26535169  0.81772511    -0.76900
O63         O  0.16708183  0.24996804  0.69339903    -0.99000
C64         C  0.27426294  0.17456333  0.78308300     1.24200
O65         O  0.28918097  0.27611499  0.77021505    -1.33900
Mn66       Mn  0.27952358  0.29587787  0.71000069     1.82100
O67         O  0.24328229  0.19620621  0.78739970    -0.75900
O68         O  0.26398171  0.14587747  0.69282890    -0.85300
C69         C  0.36114704  0.25553148  0.69615863     1.15300
C70         C  0.22734112  0.14140880  0.68440144     1.10000
O71         O  0.30045797  0.35266922  0.71701998    -0.76900
O72         O  0.25702525  0.23720595  0.70367591    -1.30600
O73         O  0.27529025  0.36576165  0.77512456    -0.96100
C74         C  0.31081635  0.24675355  0.86560514     1.08700
Mn75       Mn  0.30441055  0.19145603  0.70275979     1.48600
O76         O  0.29950103  0.28334219  0.86192395    -0.85300
Mn77       Mn  0.21635777  0.35699877  0.77582934     1.49600
O78         O  0.18324304  0.36826133  0.67430125    -0.89200
C79         C  0.15395226  0.23232049  0.72255394     1.21900
C80         C  0.19437384  0.39884807  0.69369696     1.14000
Mn81       Mn  0.23163006  0.25120801  0.76141063     1.81000
O82         O  0.34815822  0.22859584  0.71718856    -0.94300
Mn83       Mn  0.17469096  0.30812162  0.68756812     1.49300
C84         C  0.12671954  0.33429925  0.76579509     1.10500
Mn85       Mn  0.33627231  0.23117107  0.77585555     1.49900
C86         C  0.37985032  0.31111266  0.79819319     1.13400
O87         O  0.23120918  0.32372421  0.82267091    -1.00100
O88         O  0.31412913  0.19694649  0.64076351    -0.89800
C89         C  0.21199701  0.29684175  0.83781923     1.24700
O90         O  0.30174968  0.18633480  0.76199390    -1.00500
O91         O  0.25362377  0.21397165  0.61646841    -0.87900
O92         O  0.37760308  0.27484278  0.78639746    -0.87500
O93         O  0.20484005  0.39833389  0.73032057    -0.87500
Mn94       Mn  0.21150716  0.23074107  0.65867608     1.47900
O95         O  0.33776473  0.28453652  0.68805456    -0.76000
C96         C  0.29600880  0.37584354  0.74645290     1.17700
O97         O  0.17577113  0.22769432  0.75258220    -0.74700
O98         O  0.26914301  0.31445605  0.65187874    -0.74400
Mn99       Mn  0.28957929  0.32384636  0.81509959     1.51100
O100        O  0.32441738  0.22494856  0.83691572    -0.86700
O101        O  0.21153264  0.28932958  0.64304915    -0.94200
O102        O  0.35022335  0.33293399  0.80929199    -0.89300
C103        C  0.23971381  0.30858982  0.62960451     1.15500
N104        N  0.22108349  0.02656230  0.32455917    -0.01200
C105        C  0.22219940  0.99177173  0.30351948     0.01400
C106        C  0.25911151  0.98602950  0.28522282    -0.21500
C107        C  0.28071857  0.01951676  0.29403656    -0.21700
C108        C  0.25602987  0.04440848  0.31721550     0.01300
H109        H  0.26824338  0.96241525  0.26470448     0.15100
H110        H  0.30935410  0.02685703  0.28108033     0.15100
N111        N  0.29628610  0.02641433  0.17492925    -0.01200
C112        C  0.26925213  0.99741025  0.18379852     0.01400
C113        C  0.23340373  0.01562921  0.19626704    -0.21500
C114        C  0.23857188  0.05626613  0.19639335    -0.21700
C115        C  0.27733369  0.06264793  0.18363093     0.01300
H116        H  0.20703822  0.00118622  0.20742645     0.15100
H117        H  0.21699988  0.07867222  0.20744881     0.15100
O118        O  0.27993880  0.78207303  0.11923525    -0.85900
C119        C  0.20796547  0.64505147  0.28476219     1.14100
O120        O  0.27864007  0.78235206  0.21038278    -1.33700
O121        O  0.15355563  0.69650700  0.20339417    -0.87400
O122        O  0.30132969  0.84088347  0.14304686    -0.88100
O123        O  0.22168480  0.86155677  0.20473294    -0.76900
O124        O  0.22112682  0.73449399  0.16163900    -0.99000
C125        C  0.14362092  0.81117711  0.27523629     1.24200
O126        O  0.24872264  0.81276671  0.28262858    -1.33900
Mn127      Mn  0.27763823  0.75640744  0.26900305     1.82100
O128        O  0.16208774  0.82060675  0.24409514    -0.75900
O129        O  0.13119468  0.71680920  0.26405590    -0.85300
C130        C  0.24690202  0.73461239  0.35069416     1.15300
C131        C  0.12600605  0.70231612  0.22923266     1.10000
O132        O  0.33478243  0.77106141  0.28569602    -0.76900
O133        O  0.21813081  0.74215821  0.25076731    -1.30600
O134        O  0.33676764  0.83016027  0.26094425    -0.96100
C135        C  0.20506510  0.90099529  0.30822221     1.08700
Mn136      Mn  0.17798810  0.73407367  0.30055905     1.48600
O137        O  0.24121764  0.90272603  0.29632673    -0.85300
Mn138      Mn  0.31928738  0.83116735  0.20296560     1.49600
O139        O  0.34242588  0.73330621  0.16217994    -0.89200
C140        C  0.19698596  0.76084433  0.15114804     1.21900
C141        C  0.37004994  0.75764334  0.16920563     1.14000
Mn142      Mn  0.21946174  0.80243385  0.22711578     1.81000
O143        O  0.21655276  0.75298726  0.34020986    -0.94300
Mn144      Mn  0.28011361  0.73800738  0.16285281     1.49300
C145        C  0.28721625  0.81903094  0.11524678     1.10500
Mn146      Mn  0.20777426  0.81131304  0.33287311     1.49900
C147        C  0.28798620  0.84010456  0.37246006     1.13400
O148        O  0.28115426  0.87188443  0.22393235    -1.00100
O149        O  0.19617455  0.67360223  0.30798215    -0.89800
C150        C  0.25085952  0.88451585  0.20716107     1.24700
O151        O  0.16165032  0.79198891  0.30120449    -1.00500
O152        O  0.21465061  0.64933716  0.24752689    -0.87900
O153        O  0.25272638  0.82664633  0.37314790    -0.87500
O154        O  0.36439390  0.79263090  0.18379549    -0.87500
Mn155      Mn  0.21569017  0.69556198  0.20555092     1.47900
O156        O  0.27594911  0.73206093  0.32670656    -0.76000
C157        C  0.35389712  0.80212095  0.27874208     1.17700
O158        O  0.19140281  0.79110742  0.17319755    -0.74700
O159        O  0.30540555  0.70131018  0.25486825    -0.74400
Mn160      Mn  0.28892230  0.86253292  0.28170497     1.51100
O161        O  0.19020260  0.87026818  0.32379775    -0.86700
O162        O  0.27452865  0.69238358  0.19989057    -0.94200
O163        O  0.30490816  0.85328770  0.34128329    -0.89300
C164        C  0.29830064  0.67967764  0.22500039     1.15500
N165        N  0.03854115  0.22953658  0.32655844    -0.01200
C166        C  0.00460092  0.25148885  0.31813025     0.01400
C167        C  0.01234102  0.28146736  0.29102721    -0.21500
C168        C  0.05207799  0.27765410  0.28161973    -0.21700
C169        C  0.06716228  0.24521386  0.30289168     0.01300
H170        H  0.99097225  0.30287633  0.27839109     0.15100
H171        H  0.06832234  0.29638515  0.26124866     0.15100
N172        N  0.99363737  0.33659258  0.16855362    -0.01200
C173        C  0.96655811  0.30804824  0.17517014     0.01400
C174        C  0.98571689  0.27195465  0.18498835    -0.21500
C175        C  0.02581901  0.27888031  0.18544857    -0.21700
C176        C  0.02991078  0.31913043  0.17646986     0.01300
H177        H  0.97209068  0.24447345  0.19449697     0.15100
H178        H  0.04879427  0.25771754  0.19541235     0.15100
O179        O  0.87024163  0.22548800  0.32065416    -0.85900
C180        C  0.64628649  0.20173660  0.29516771     1.14100
O181        O  0.79877598  0.27013435  0.28125726    -1.33700
O182        O  0.73155773  0.13701573  0.26754646    -0.87400
O183        O  0.88829781  0.28069746  0.28755930    -0.88100
O184        O  0.84371932  0.25020915  0.19939128    -0.76900
O185        O  0.79751371  0.18086626  0.30128954    -0.99000
C186        C  0.75237949  0.20802906  0.15200348     1.24200
O187        O  0.75953725  0.29338991  0.21088478    -1.33900
Mn188      Mn  0.73775698  0.28799095  0.27153530     1.82100
O189        O  0.78271689  0.20704182  0.17360502    -0.75900
O190        O  0.70159588  0.15275920  0.20948975    -0.85300
C191        C  0.65960958  0.29535467  0.23050870     1.15300
C192        C  0.71808621  0.12788206  0.23346083     1.10000
O193        O  0.74136528  0.34748449  0.28777393    -0.76900
O194        O  0.73485765  0.22629793  0.25433240    -1.30600
O195        O  0.79750773  0.35833183  0.25940672    -0.96100
C196        C  0.78768261  0.31212459  0.11272579     1.08700
Mn197      Mn  0.68864056  0.21472217  0.21157121     1.48600
O198        O  0.80669700  0.33062402  0.13981360    -0.85300
Mn199      Mn  0.83942864  0.31881469  0.27598378     1.49600
O200        O  0.81607822  0.27931466  0.37001649    -0.89200
C201        C  0.81767247  0.16641833  0.27347898     1.21900
C202        C  0.82349554  0.31647786  0.36811003     1.14000
Mn203      Mn  0.79058028  0.23830203  0.22649273     1.81000
O204        O  0.67591697  0.27253274  0.20625729    -0.94300
Mn205      Mn  0.80853425  0.23075563  0.33184666     1.49300
C206        C  0.89605595  0.24688733  0.30353778     1.10500
Mn207      Mn  0.71484734  0.28653610  0.16581398     1.49900
C208        C  0.71316784  0.38051208  0.17784373     1.13400
O209        O  0.84520111  0.31192641  0.21718396    -1.00100
O210        O  0.64683114  0.20791596  0.25754803    -0.89800
C211        C  0.86039062  0.28313066  0.19895010     1.24700
O212        O  0.72248063  0.22696075  0.16382593    -1.00500
O213        O  0.67709673  0.19261515  0.31559353    -0.87900
O214        O  0.69740033  0.34746820  0.16865308    -0.87500
O215        O  0.83227428  0.33456651  0.33610386    -0.87500
Mn216      Mn  0.73838514  0.18590688  0.30451819     1.47900
O217        O  0.67826771  0.30496980  0.26132295    -0.76000
C218        C  0.76896900  0.37071823  0.27990788     1.17700
O219        O  0.82058867  0.18576809  0.24172690    -0.74700
O220        O  0.71777180  0.28231854  0.33032047    -0.74400
Mn221      Mn  0.79755780  0.34386313  0.20117123     1.51100
O222        O  0.75436148  0.29581399  0.11875808    -0.86700
O223        O  0.75005301  0.22791450  0.34432987    -0.94200
O224        O  0.74947637  0.38340871  0.18853167    -0.89300
C225        C  0.72629881  0.25500320  0.35481433     1.15500
N226        N  0.71428668  0.17945630  0.00879387    -0.01200
C227        C  0.73712314  0.17414604  0.97523037     0.01400
C228        C  0.77695251  0.16963477  0.98527521    -0.21500
C229        C  0.77887980  0.17342985  0.02635777    -0.21700
C230        C  0.73991619  0.17986354  0.04033657     0.01300
H231        H  0.80216328  0.16717958  0.96478360     0.15100
H232        H  0.80624558  0.17445517  0.04345937     0.15100
N233        N  0.85373870  0.32663781  0.98580266    -0.01200
C234        C  0.85535638  0.30525633  0.02027248     0.01400
C235        C  0.85809844  0.26462629  0.01181527    -0.21500
C236        C  0.85630187  0.26068550  0.97100322    -0.21700
C237        C  0.85234992  0.29924645  0.95531632     0.01300
H238        H  0.85646454  0.24036714  0.03316248     0.15100
H239        H  0.85316371  0.23226098  0.95560594     0.15100
N240        N  0.00830609  0.21210504  0.68900245    -0.01200
C241        C  0.97627818  0.21867362  0.71383611     0.01400
C242        C  0.98856400  0.23140750  0.75119451    -0.21500
C243        C  0.02926265  0.23332958  0.74952088    -0.21700
C244        C  0.04110097  0.22127197  0.71127980     0.01300
H245        H  0.96981296  0.23989355  0.77659139     0.15100
H246        H  0.04809733  0.24416590  0.77331610     0.15100
N247        N  0.01342331  0.33096254  0.83893472    -0.01200
C248        C  0.04774750  0.30869384  0.84316748     0.01400
C249        C  0.03950179  0.27090186  0.85734060    -0.21500
C250        C  0.99840137  0.26928046  0.86023603    -0.21700
C251        C  0.98332660  0.30624509  0.84797008     0.01300
H252        H  0.06064008  0.24593255  0.86098608     0.15100
H253        H  0.98142574  0.24282938  0.86655267     0.15100
O254        O  0.86498857  0.33125390  0.80109099    -0.85900
C255        C  0.64060414  0.30304863  0.82094919     1.14100
O256        O  0.79792665  0.29660267  0.74941577    -1.33700
O257        O  0.72084832  0.26927980  0.87792306    -0.87400
O258        O  0.88965375  0.30657400  0.74308108    -0.88100
O259        O  0.84299538  0.21161275  0.76094132    -0.76900
O260        O  0.79046502  0.30654384  0.83854595    -0.99000
C261        C  0.74550834  0.16164766  0.79152470     1.24200
O262        O  0.76037970  0.22994773  0.71602242    -1.33900
Mn263      Mn  0.73801245  0.28958160  0.72793631     1.82100
O264        O  0.77643869  0.18144819  0.79619179    -0.75900
O265        O  0.69711118  0.21182134  0.85298623    -0.85300
C266        C  0.65752262  0.25357764  0.71373989     1.15300
C267        C  0.70923614  0.23352276  0.88202443     1.10000
O268        O  0.74637510  0.31234095  0.67133218    -0.76900
O269        O  0.73038055  0.26559990  0.78646412    -1.30600
O270        O  0.80402876  0.28466900  0.66037020    -0.96100
C271        C  0.79253558  0.13522015  0.69066361     1.08700
Mn272      Mn  0.68396444  0.22243034  0.79155778     1.48600
O273        O  0.81367714  0.16407481  0.67907807    -0.85300
Mn274      Mn  0.84289514  0.29776088  0.70276262     1.49600
O275        O  0.81387320  0.38640516  0.75162011    -0.89200
C276        C  0.81109631  0.27761857  0.84972899     1.21900
C277        C  0.82668525  0.38909221  0.71588394     1.14000
Mn278      Mn  0.78731534  0.23791622  0.77339556     1.81000
O279        O  0.67084325  0.22454933  0.73262946    -0.94300
Mn280      Mn  0.80374520  0.34279202  0.79434047     1.49300
C281        C  0.89380081  0.31849604  0.77905549     1.10500
Mn282      Mn  0.71415270  0.18598083  0.71369416     1.49900
C283        C  0.72524629  0.20476470  0.62186339     1.13400
O284        O  0.84917787  0.23918760  0.70406166    -1.00100
O285        O  0.64295112  0.26717329  0.80764555    -0.89800
C286        C  0.86394526  0.21889347  0.73091642     1.24700
O287        O  0.71764126  0.17664008  0.77254395    -1.00500
O288        O  0.67038481  0.32425637  0.82899247    -0.87900
O289        O  0.70303477  0.19607316  0.65172361    -0.87500
O290        O  0.83709911  0.35936364  0.69385535    -0.87500
Mn291      Mn  0.73134662  0.31110573  0.83316999     1.47900
O292        O  0.67993420  0.28250743  0.70782382    -0.76000
C293        C  0.77633913  0.30681146  0.64913387     1.17700
O294        O  0.81306731  0.24652476  0.82850882    -0.74700
O295        O  0.71684297  0.34752953  0.73961179    -0.74400
Mn296      Mn  0.80444304  0.22530225  0.66888965     1.51100
O297        O  0.75573385  0.13903920  0.70045083    -0.86700
O298        O  0.74547546  0.35493788  0.79610084    -0.94200
O299        O  0.76163148  0.21428543  0.62519317    -0.89300
C300        C  0.72496866  0.36933096  0.76898594     1.15500
N301        N  0.18283334  0.72023276  0.00716809    -0.01200
C302        C  0.19114292  0.74390251  0.97569300     0.01400
C303        C  0.18907328  0.78369620  0.98694914    -0.21500
C304        C  0.18007597  0.78476551  0.02706900    -0.21700
C305        C  0.17751202  0.74513933  0.03948418     0.01300
H306        H  0.19660825  0.80897205  0.96871348     0.15100
H307        H  0.18047561  0.81151775  0.04567167     0.15100
N308        N  0.30662669  0.87563088  0.98597726    -0.01200
C309        C  0.28139978  0.87876550  0.01786334     0.01400
C310        C  0.24214416  0.87947694  0.00498491    -0.21500
C311        C  0.24345643  0.87495396  0.96404257    -0.21700
C312        C  0.28343951  0.87049464  0.95312289     0.01300
H313        H  0.21550232  0.87928913  0.02359908     0.15100
H314        H  0.21785189  0.87117394  0.94478965     0.15100
N315        N  0.17907210  0.01622361  0.70150169    -0.01200
C316        C  0.18700293  0.98865158  0.73030767     0.01400
C317        C  0.18188769  0.00658591  0.76787798    -0.21500
C318        C  0.17210181  0.04643710  0.76170088    -0.21700
C319        C  0.17142987  0.05180923  0.72083129     0.01300
H320        H  0.18663632  0.99332049  0.79696380     0.15100
H321        H  0.16964970  0.06968263  0.78454462     0.15100
N322        N  0.33335591  0.04002504  0.82163644    -0.01200
C323        C  0.31535091  0.00422270  0.82395195     0.01400
C324        C  0.27438754  0.00977063  0.82657511    -0.21500
C325        C  0.26675123  0.05038718  0.82431266    -0.21700
C326        C  0.30352324  0.06864855  0.82053127     0.01300
H327        H  0.25232782  0.98662328  0.82604654     0.15100
H328        H  0.23715424  0.06405573  0.82182308     0.15100
O329        O  0.38850904  0.81398714  0.76629023    -0.85900
C330        C  0.21915443  0.70649282  0.87086466     1.14100
O331        O  0.29730366  0.80570657  0.75872794    -1.33700
O332        O  0.30915549  0.66438666  0.81476914    -0.87400
O333        O  0.36653237  0.84427934  0.71047122    -0.88100
O334        O  0.31309112  0.76501349  0.67393813    -0.76900
O335        O  0.34936744  0.74109117  0.79711030    -0.99000
C336        C  0.24542066  0.67891600  0.69858930     1.24200
O337        O  0.22951853  0.78031173  0.71762355    -1.33900
Mn338      Mn  0.23684624  0.79686978  0.77947464     1.82100
O339        O  0.27643040  0.69863586  0.69682456    -0.75900
O340        O  0.25182608  0.64438884  0.78725042    -0.85300
C341        C  0.15686652  0.75916220  0.78790308     1.15300
C342        C  0.28708777  0.63752424  0.79996242     1.10000
O343        O  0.21708333  0.85562221  0.77573973    -0.76900
O344        O  0.25927368  0.73627882  0.78287571    -1.30600
O345        O  0.24596414  0.86823902  0.71993078    -0.96100
C346        C  0.20731442  0.75882902  0.61843175     1.08700
Mn347      Mn  0.21276234  0.69337882  0.77830833     1.48600
O348        O  0.22005745  0.79362445  0.62666486    -0.85300
Mn349      Mn  0.30462409  0.85601363  0.71916603     1.49600
O350        O  0.33355849  0.86100372  0.82137309    -0.89200
C351        C  0.36185150  0.72310785  0.76692149     1.21900
C352        C  0.32456321  0.89349795  0.80346075     1.14000
Mn353      Mn  0.28652600  0.75114221  0.72724239     1.81000
O354        O  0.17242966  0.73483718  0.76467607    -0.94300
Mn355      Mn  0.34181672  0.80057034  0.80495952     1.49300
C356        C  0.39441673  0.82922942  0.73208068     1.10500
Mn357      Mn  0.18240595  0.73922130  0.70676946     1.49900
C358        C  0.13893661  0.82347159  0.69388093     1.13400
O359        O  0.28956254  0.82509206  0.67089166    -1.00100
O360        O  0.19965882  0.69737220  0.83966689    -0.89800
C361        C  0.30895420  0.79715644  0.65546127     1.24700
O362        O  0.21714677  0.69168338  0.71890023    -1.00500
O363        O  0.25615541  0.71463598  0.87050748    -0.87900
O364        O  0.13949206  0.78568056  0.69955166    -0.87500
O365        O  0.31576517  0.89546040  0.76648454    -0.87500
Mn366      Mn  0.30207105  0.72567583  0.82987971     1.47900
O367        O  0.17750026  0.78792648  0.79948802    -0.76000
C368        C  0.22510063  0.87972890  0.74856824     1.17700
O369        O  0.34077393  0.72300561  0.73628104    -0.74700
O370        O  0.24501222  0.81246405  0.83871095    -0.74400
Mn371      Mn  0.23068105  0.83004755  0.67717277     1.51100
O372        O  0.19332196  0.73550248  0.64475410    -0.86700
O373        O  0.30264481  0.78358580  0.84504911    -0.94200
O374        O  0.16983666  0.84323395  0.68582968    -0.89300
C375        C  0.27514988  0.80447958  0.85949167     1.15500
N376        N  0.00938727  0.63843382  0.22057946    -0.01200
C377        C  0.97796513  0.63021971  0.24477063     0.01400
C378        C  0.99108827  0.61826244  0.28216450    -0.21500
C379        C  0.03205929  0.62054784  0.28155754    -0.21700
C380        C  0.04208780  0.63377495  0.24382774     0.01300
H381        H  0.97270015  0.61188059  0.30804994     0.15100
H382        H  0.05200285  0.61596557  0.30669295     0.15100
N383        N  0.99684713  0.82578760  0.31755826    -0.01200
C384        C  0.96590649  0.81176255  0.29504729     0.01400
C385        C  0.98021488  0.79045444  0.26198164    -0.21500
C386        C  0.02078127  0.79106332  0.26336014    -0.21700
C387        C  0.03089524  0.81278322  0.29720678     0.01300
H388        H  0.96292213  0.77475840  0.23976220     0.15100
H389        H  0.04105314  0.77598785  0.24230600     0.15100
N390        N  0.84116011  0.02152281  0.31301483    -0.01200
C391        C  0.83745403  0.05376038  0.28823316     0.01400
C392        C  0.83210824  0.04038406  0.24915996    -0.21500
C393        C  0.83149852  0.99920375  0.25026020    -0.21700
C394        C  0.83671271  0.98842563  0.28987979     0.01300
H395        H  0.82568274  0.05854336  0.22306392     0.15100
H396        H  0.82505831  0.97944884  0.22532207     0.15100
N397        N  0.67440288  0.99327463  0.19642291    -0.01200
C398        C  0.68061389  0.95820116  0.21638329     0.01400
C399        C  0.69619214  0.96567737  0.25385509    -0.21500
C400        C  0.70212021  0.00601867  0.25635339    -0.21700
C401        C  0.68896132  0.02204941  0.22050512     0.01300
H402        H  0.70394680  0.94383934  0.27638204     0.15100
H403        H  0.71462230  0.02190436  0.28158448     0.15100
O404        O  0.66055560  0.69976198  0.18451130    -0.85900
C405        C  0.88465403  0.69322173  0.23317544     1.14100
O406        O  0.71960584  0.75727913  0.22476196    -1.33700
O407        O  0.80760336  0.63621601  0.26086500    -0.87400
O408        O  0.63007072  0.75222216  0.21581101    -0.88100
O409        O  0.67057041  0.74565202  0.30781487    -0.76900
O410        O  0.73686566  0.67041519  0.21804107    -0.99000
C411        C  0.76911179  0.72716704  0.36525318     1.24200
O412        O  0.75084147  0.79595202  0.29166186    -1.33900
Mn413      Mn  0.77652311  0.78478336  0.23379919     1.82100
O414        O  0.74001377  0.71749308  0.34394475    -0.75900
O415        O  0.82352409  0.66394075  0.32008349    -0.85300
C416        C  0.85448859  0.80253813  0.27336947     1.15300
C417        C  0.81649834  0.63364242  0.29770140     1.10000
O418        O  0.76219551  0.84117991  0.20752363    -0.76900
O419        O  0.78902711  0.72704175  0.26089023    -1.30600
O420        O  0.70369243  0.84282736  0.23245984    -0.96100
C421        C  0.71813818  0.83288161  0.38214569     1.08700
Mn422      Mn  0.83318306  0.72529084  0.30734861     1.48600
O423        O  0.69524474  0.83977314  0.35274101    -0.85300
Mn424      Mn  0.66941939  0.79819549  0.22120500     1.49600
O425        O  0.70920594  0.75231864  0.13308369    -0.89200
C426        C  0.71619413  0.65739237  0.24528297     1.21900
C427        C  0.68837557  0.78464164  0.12965900     1.14000
Mn428      Mn  0.72955081  0.73619414  0.28495648     1.81000
O429        O  0.84087858  0.78398378  0.30165490    -0.94300
Mn430      Mn  0.72114892  0.71152032  0.17892785     1.49300
C431        C  0.63012449  0.71755717  0.19996121     1.10500
Mn432      Mn  0.79627109  0.80370463  0.33621851     1.49900
C433        C  0.78084138  0.89120052  0.30499510     1.13400
O434        O  0.66237146  0.80184772  0.27953122    -1.00100
O435        O  0.87937705  0.70781110  0.26815546    -0.89800
C436        C  0.64841876  0.77580314  0.30037683     1.24700
O437        O  0.79601279  0.74584769  0.34962843    -1.00500
O438        O  0.85656207  0.68602933  0.20894566    -0.87900
O439        O  0.80403408  0.86450057  0.32046926    -0.87500
O440        O  0.67274047  0.80385595  0.15908200    -0.87500
Mn441      Mn  0.79523111  0.67909655  0.21739781     1.47900
O442        O  0.83254431  0.80918802  0.24359025    -0.76000
C443        C  0.72836892  0.85845357  0.21113720     1.17700
O444        O  0.71033503  0.67826858  0.27629350    -0.74700
O445        O  0.80152592  0.77303514  0.17778346    -0.74400
Mn446      Mn  0.70376488  0.84073911  0.29118878     1.51100
O447        O  0.75408224  0.81992449  0.37928692    -0.86700
O448        O  0.77963572  0.71392325  0.17202370    -0.94200
O449        O  0.74467701  0.88552093  0.29605859    -0.89300
C450        C  0.79798033  0.74164424  0.15747935     1.15500
N451        N  0.62890103  0.80584495  0.00498910    -0.01200
C452        C  0.62530362  0.78978936  0.04212090     0.01400
C453        C  0.62156968  0.74851596  0.03934922    -0.21500
C454        C  0.62357848  0.73865093  0.99947280    -0.21700
C455        C  0.62864522  0.77420327  0.97949156     0.01300
H456        H  0.62177339  0.72743680  0.06392270     0.15100
H457        H  0.62437453  0.70862012  0.98671145     0.15100
N458        N  0.80952118  0.70606628  0.01049663    -0.01200
C459        C  0.79720651  0.73076614  0.97982677     0.01400
C460        C  0.78016319  0.76613163  0.99522937    -0.21500
C461        C  0.78211495  0.76389401  0.03583496    -0.21700
C462        C  0.79986259  0.72706110  0.04479185     0.01300
H463        H  0.76620061  0.79062498  0.97872629     0.15100
H464        H  0.77060811  0.78643936  0.05679731     0.15100
N465        N  0.86270447  0.01749792  0.70351299    -0.01200
C466        C  0.86312283  0.05170938  0.72581270     0.01400
C467        C  0.86691528  0.04263258  0.76596072    -0.21500
C468        C  0.86703162  0.00130005  0.76851369    -0.21700
C469        C  0.86389998  0.98683819  0.72975926     0.01300
H470        H  0.86494253  0.06362874  0.79089758     0.15100
H471        H  0.86528289  0.98403300  0.79580563     0.15100
N472        N  0.70053370  0.01972785  0.81878628    -0.01200
C473        C  0.72251614  0.98553938  0.81020301     0.01400
C474        C  0.76043723  0.99469788  0.79720196    -0.21500
C475        C  0.76202112  0.03548020  0.79669030    -0.21700
C476        C  0.72518526  0.05070802  0.80995389     0.01300
H477        H  0.78396924  0.97383702  0.78739930     0.15100
H478        H  0.78674748  0.05224075  0.78521240     0.15100
N479        N  0.99274255  0.84953546  0.69357773    -0.01200
C480        C  0.02875198  0.84804332  0.71228427     0.01400
C481        C  0.02432975  0.85468664  0.75279434    -0.21500
C482        C  0.98398642  0.85834584  0.75988649    -0.21700
C483        C  0.96486970  0.85285681  0.72344718     0.01300
H484        H  0.04766916  0.85338510  0.77514801     0.15100
H485        H  0.97059649  0.86177641  0.78918868     0.15100
N486        N  0.02910820  0.74269807  0.83353796    -0.01200
C487        C  0.99160790  0.75954024  0.83253877     0.01400
C488        C  0.99234819  0.79973570  0.84260143    -0.21500
C489        C  0.03205525  0.80865185  0.84759688    -0.21700
C490        C  0.05414254  0.77345761  0.84057185     0.01300
H491        H  0.96709327  0.82080771  0.84317539     0.15100
H492        H  0.04369229  0.83831299  0.85238437     0.15100
N493        N  0.99615437  0.93848776  0.45239418    -0.03800
N494        N  0.98326518  0.91563044  0.42241188    -0.56000
N495        N  0.03452626  0.93704803  0.54575928    -0.03500
N496        N  0.04776545  0.91366894  0.57481037    -0.58100
N497        N  0.99509011  0.93861584  0.54573399    -0.03100
N498        N  0.98082644  0.91641821  0.57519955    -0.55900
N499        N  0.03564596  0.93671566  0.45342062    -0.02800
N500        N  0.05017207  0.91342849  0.42423693    -0.58400
C501        C  0.01752010  0.90018192  0.40507084     0.98300
C502        C  0.01421909  0.90071502  0.59285896     0.98100
N503        N  0.10701794  0.04079545  0.54332274    -0.04000
N504        N  0.12665806  0.05557268  0.57386082    -0.56500
N505        N  0.10459795  0.99900475  0.45360348    -0.02100
N506        N  0.12783007  0.98216132  0.42585024    -0.57800
N507        N  0.10613930  0.03843105  0.45176505    -0.04100
N508        N  0.13075978  0.04922800  0.42284368    -0.56800
N509        N  0.10454382  0.00153153  0.54627565    -0.01800
N510        N  0.12288790  0.98902507  0.57930356    -0.57900
Mn511      Mn  0.07060849  0.96773860  0.50008983     1.18400
C512        C  0.13704002  0.02324969  0.59592902     1.00400
C513        C  0.14373422  0.01366563  0.40689069     1.01100
N514        N  0.93284462  0.01265944  0.54784247    -0.04100
N515        N  0.91168884  0.00160281  0.57945519    -0.60400
N516        N  0.93453419  0.05343085  0.45708328    -0.02900
N517        N  0.91372667  0.07117763  0.42853479    -0.61100
N518        N  0.93143385  0.01407273  0.45508534    -0.03600
N519        N  0.90773550  0.00445812  0.42498805    -0.60600
N520        N  0.93641749  0.05200694  0.54813206    -0.02500
N521        N  0.91772113  0.06833718  0.57928452    -0.61300
Mn522      Mn  0.96251385  0.97491996  0.49993840     1.10700
C523        C  0.90216880  0.03689396  0.59847678     1.01600
C524        C  0.89680990  0.04060428  0.40902264     1.01700
N525        N  0.04218447  0.11146088  0.45221811    -0.03600
N526        N  0.05506113  0.13508022  0.42332162    -0.59000
N527        N  0.00639722  0.11488334  0.54758552    -0.02900
N528        N  0.99550964  0.13806838  0.57848689    -0.55700
N529        N  0.04564690  0.11201698  0.54493855    -0.04200
N530        N  0.06230850  0.13250070  0.57417015    -0.58500
N531        N  0.00296703  0.11457872  0.45528813    -0.03200
N532        N  0.98835529  0.14009983  0.42878193    -0.55700
Mn533      Mn  0.07607948  0.07622688  0.49746262     1.20200
Mn534      Mn  0.96934956  0.08426543  0.50232385     1.10100
Cl535      Cl  0.01957973  0.02562203  0.49986831    -0.83700
C536        C  0.02088514  0.15232817  0.40865581     0.98600
C537        C  0.03084593  0.14889865  0.59471128     0.98400
N538        N  0.98606703  0.47055135  0.06026635    -0.03800
N539        N  0.97358250  0.44038761  0.08249930    -0.56000
N540        N  0.01770236  0.56304671  0.07346622    -0.03500
N541        N  0.02629816  0.58885895  0.10232387    -0.58100
N542        N  0.97862864  0.56204868  0.06886183    -0.03100
N543        N  0.96012081  0.58679759  0.09431683    -0.55900
N544        N  0.02543125  0.47188349  0.06164265    -0.02800
N545        N  0.04043071  0.44299522  0.08415823    -0.58400
C546        C  0.00809699  0.42368100  0.09707825     0.98300
C547        C  0.99000413  0.60371914  0.11489232     0.98100
N548        N  0.09564585  0.57989135  0.97754106    -0.04000
N549        N  0.11747550  0.61220564  0.97275855    -0.56500
N550        N  0.09910792  0.48092570  0.00067905    -0.02100
N551        N  0.12105158  0.44826311  0.00970371    -0.57800
N552        N  0.10234542  0.48812638  0.96207982    -0.04100
N553        N  0.12569541  0.46076674  0.94415105    -0.56800
N554        N  0.09078130  0.57300198  0.01601035    -0.01800
N555        N  0.10823662  0.60034570  0.03805049    -0.57900
Mn556      Mn  0.05894553  0.52183282  0.03864354     1.18400
C557        C  0.12525394  0.62431171  0.01097389     1.00400
C558        C  0.13774149  0.43626656  0.97396274     1.01100
N559        N  0.91726883  0.56819717  0.99674695    -0.04100
N560        N  0.89155321  0.59605481  0.01100433    -0.60400
N561        N  0.92916193  0.47933847  0.94771955    -0.02900
N562        N  0.91119378  0.44959718  0.92904572    -0.61100
N563        N  0.92485809  0.47578188  0.98678432    -0.03600
N564        N  0.90358986  0.44412281  0.99540138    -0.60600
N565        N  0.92177253  0.57240294  0.95775964    -0.02500
N566        N  0.89955362  0.60317740  0.94487423    -0.61300
Mn567      Mn  0.95077835  0.51897771  0.02883741     1.10700
C568        C  0.88062263  0.61766280  0.97819903     1.01600
C569        C  0.89499016  0.42806912  0.95917571     1.01700
N570        N  0.04234997  0.49351132  0.89187940    -0.03600
N571        N  0.06101604  0.46361480  0.87260201    -0.59000
N572        N  0.99560152  0.58259588  0.89905115    -0.02900
N573        N  0.98111064  0.61410118  0.87966980    -0.55700
N574        N  0.03460138  0.58539856  0.90331910    -0.04200
N575        N  0.04737858  0.61864322  0.88653929    -0.58500
N576        N  0.00331090  0.49020237  0.88876442    -0.03200
N577        N  0.99489168  0.45801305  0.86722174    -0.55700
Mn578      Mn  0.06959529  0.53748199  0.93287267     1.20200
Mn579      Mn  0.96171059  0.53109636  0.92216667     1.10100
Cl580      Cl  0.01019685  0.52733690  0.98063396    -0.83700
C581        C  0.03126265  0.44176538  0.85703825     0.98600
C582        C  0.01358992  0.63606846  0.87162397     0.98400
N583        N  0.46872520  0.13137578  0.99530375    -0.03800
N584        N  0.43721751  0.15226063  0.98201574    -0.56000
N585        N  0.55730985  0.11380962  0.04322374    -0.03500
N586        N  0.58801156  0.12876209  0.06260461    -0.58100
N587        N  0.56057018  0.12068335  0.00454367    -0.03100
N588        N  0.59335467  0.14045255  0.99687982    -0.55900
N589        N  0.46601733  0.12689379  0.03439365    -0.02800
N590        N  0.43295237  0.14460149  0.04826324    -0.58400
C591        C  0.41525449  0.16058996  0.01558651     0.98300
C592        C  0.61007455  0.14558498  0.03330755     0.98100
N593        N  0.53252234  0.99915019  0.09321754    -0.04000
N594        N  0.55714897  0.97506795  0.11307868    -0.56500
N595        N  0.44900928  0.05467849  0.08870133    -0.02100
N596        N  0.41857945  0.07152846  0.10869408    -0.57800
N597        N  0.44230541  0.01653249  0.08152915    -0.04100
N598        N  0.40766411  0.00635786  0.09759890    -0.56800
N599        N  0.54159466  0.03698130  0.09842396    -0.01800
N600        N  0.57328344  0.03926717  0.12212380    -0.57900
Mn601      Mn  0.50420790  0.08398014  0.06744999     1.18400
C602        C  0.58264716  0.00011610  0.13062796     1.00400
C603        C  0.39324196  0.04112082  0.11451307     1.01100
N604        N  0.56486122  0.06470679  0.92820956    -0.04100
N605        N  0.59649571  0.07909315  0.90981148    -0.60400
N606        N  0.47184173  0.03655359  0.91010306    -0.02900
N607        N  0.44387100  0.02935429  0.88336165    -0.61100
N608        N  0.47319180  0.07540478  0.91756798    -0.03600
N609        N  0.44593647  0.09527087  0.89623527    -0.60600
N610        N  0.56288998  0.02565119  0.92189412    -0.02500
N611        N  0.59288235  0.01300051  0.89829603    -0.61300
Mn612      Mn  0.51679634  0.09925251  0.96074755     1.10700
C613        C  0.61371893  0.04670474  0.89113350     1.01600
C614        C  0.42815616  0.06625026  0.87458079     1.01700
N615        N  0.44743780  0.95851646  0.00358369    -0.03600
N616        N  0.41516433  0.93714635  0.00875518    -0.59000
N617        N  0.54651019  0.95046185  0.98148281    -0.02900
N618        N  0.57893883  0.92775135  0.97333600    -0.55700
N619        N  0.53709688  0.94702044  0.01966270    -0.04200
N620        N  0.56314268  0.92369947  0.03833958    -0.58500
N621        N  0.45533523  0.96245465  0.96508949    -0.03200
N622        N  0.42787149  0.94467021  0.94334790    -0.55700
Mn623      Mn  0.48868048  0.97965893  0.04977644     1.20200
Mn624      Mn  0.50970479  0.99258587  0.94348385     1.10100
Cl625      Cl  0.50483422  0.03893909  0.00521706    -0.82100
C626        C  0.40333794  0.92863020  0.97097757     0.98600
C627        C  0.58913357  0.91191916  0.00960081     0.98400
O628        O  0.82378375  0.65100169  0.76989076    -0.85900
C629        C  0.67927202  0.79443022  0.88149766     1.14100
O630        O  0.79552244  0.73779160  0.76272027    -1.33700
O631        O  0.65805387  0.70941663  0.81279158    -0.87400
O632        O  0.84288591  0.67506021  0.71051930    -0.88100
O633        O  0.75428058  0.72540314  0.67836780    -0.76900
O634        O  0.74228266  0.67822343  0.79909464    -0.99000
C635        C  0.66158521  0.78790280  0.71035827     1.24200
O636        O  0.76105703  0.80650896  0.72794068    -1.33900
Mn637      Mn  0.78091096  0.79519213  0.78816096     1.82100
O638        O  0.68385883  0.75703026  0.70707891    -0.75900
O639        O  0.63201741  0.77068055  0.79816851    -0.85300
C640        C  0.73638124  0.87241525  0.80475397     1.15300
C641        C  0.62883674  0.73318356  0.80374662     1.10000
O642        O  0.83764363  0.81945437  0.78337673    -0.76900
O643        O  0.72297622  0.76936845  0.79171813    -1.30600
O644        O  0.84918659  0.79551136  0.72490393    -0.96100
C645        C  0.73669100  0.84116185  0.63318713     1.08700
Mn646      Mn  0.67510946  0.81412934  0.79224912     1.48600
O647        O  0.77155209  0.82616048  0.63888080    -0.85300
Mn648      Mn  0.84520650  0.73698596  0.72123731     1.49600
O649        O  0.85598716  0.71243379  0.82487451    -0.89200
C650        C  0.72644617  0.66472208  0.76902541     1.21900
C651        C  0.88640967  0.72424351  0.80554155     1.14000
Mn652      Mn  0.73892494  0.74679410  0.73420502     1.81000
O653        O  0.71094723  0.85924281  0.78219902    -0.94300
Mn654      Mn  0.79889038  0.69326370  0.80856967     1.49300
C655        C  0.83839029  0.64648436  0.73497284     1.10500
Mn656      Mn  0.71516621  0.85328192  0.72329936     1.49900
C657        C  0.79378636  0.90160981  0.70965728     1.13400
O658        O  0.81127661  0.75245899  0.67371555    -1.00100
O659        O  0.67692019  0.82095093  0.85445079    -0.89800
C660        C  0.78447773  0.73323608  0.65812539     1.24700
O661        O  0.67171741  0.81526873  0.73268381    -1.00500
O662        O  0.69256810  0.75884618  0.87589137    -0.87900
O663        O  0.75684994  0.89877222  0.71822566    -0.87500
O664        O  0.88712250  0.72843217  0.76756116    -0.87500
Mn665      Mn  0.71642640  0.72078652  0.83299286     1.47900
O666        O  0.76649442  0.85086444  0.81246826    -0.76000
C667        C  0.86012373  0.81588900  0.75325351     1.17700
O668        O  0.71956709  0.68803730  0.74031408    -0.74700
O669        O  0.79762977  0.78423667  0.84704662    -0.74400
Mn670      Mn  0.80931957  0.81139978  0.68559589     1.51100
O671        O  0.71143667  0.84906120  0.66089639    -0.86700
O672        O  0.77248084  0.72629708  0.85061224    -0.94200
O673        O  0.81619084  0.87213207  0.69842028    -0.89300
C674        C  0.78863541  0.75430967  0.86738904     1.15500
N675        N  0.31902435  0.84738742  0.51616420    -0.01200
C676        C  0.31989535  0.81926856  0.54519499     0.01400
C677        C  0.31522350  0.78137698  0.52852562    -0.21500
C678        C  0.31034888  0.78661794  0.48813157    -0.21700
C679        C  0.31213183  0.82728110  0.48144846     0.01300
H680        H  0.31219217  0.75336983  0.54425647     0.15100
H681        H  0.30250313  0.76392185  0.46646089     0.15100
N682        N  0.19755944  0.69542988  0.48837200    -0.01200
C683        C  0.21796614  0.69353625  0.52367900     0.01400
C684        C  0.25852494  0.68998742  0.51646064    -0.21500
C685        C  0.26378593  0.69178649  0.47578022    -0.21700
C686        C  0.22606831  0.69691726  0.45891307     0.01300
H687        H  0.28200654  0.68960776  0.53867344     0.15100
H688        H  0.29264029  0.69243075  0.46106712     0.15100
N689        N  0.82694912  0.34345512  0.51194387    -0.01200
C690        C  0.80765027  0.33809696  0.47676854     0.01400
C691        C  0.76763684  0.33172436  0.48301078    -0.21500
C692        C  0.76201953  0.33142578  0.52358430    -0.21700
C693        C  0.79903445  0.33772463  0.54109287     0.01300
H694        H  0.74613485  0.32288955  0.46070173     0.15100
H695        H  0.73469302  0.32271213  0.53821275     0.15100
N696        N  0.67690078  0.21037661  0.49374376    -0.01200
C697        C  0.66930969  0.23342016  0.52697927     0.01400
C698        C  0.66518719  0.27326589  0.51695736    -0.21500
C699        C  0.67240520  0.27543768  0.47650818    -0.21700
C700        C  0.68077931  0.23649212  0.46239224     0.01300
H701        H  0.66086288  0.29848109  0.53738236     0.15100
H702        H  0.67390533  0.30342764  0.46050396     0.15100
N703        N  0.72178195  0.88571860  0.50651107    -0.01200
C704        C  0.73644167  0.88866037  0.46875155     0.01400
C705        C  0.77775152  0.88738489  0.46836176    -0.21500
C706        C  0.78934518  0.88377614  0.50746631    -0.21700
C707        C  0.75459873  0.88268346  0.52996848     0.01300
H708        H  0.79719737  0.88667561  0.44226553     0.15100
H709        H  0.81976838  0.88032973  0.51819088     0.15100
N710        N  0.81504152  0.71981415  0.51073185    -0.01200
C711        C  0.79462365  0.73323065  0.54391735     0.01400
C712        C  0.75703675  0.74805277  0.53362225    -0.21500
C713        C  0.75399054  0.74410290  0.49293448    -0.21700
C714        C  0.78977303  0.72682674  0.47904651     0.01300
H715        H  0.73451921  0.76130226  0.55355741     0.15100
H716        H  0.72881739  0.75459654  0.47518411     0.15100
N717        N  0.50930940  0.31528818  0.81630226    -0.01200
C718        C  0.48540934  0.29730846  0.78961456     0.01400
C719        C  0.49776362  0.25779683  0.78310710    -0.21500
C720        C  0.53115254  0.25135602  0.80603206    -0.21700
C721        C  0.53743121  0.28708375  0.82591728     0.01300
H722        H  0.48333492  0.23566162  0.76470363     0.15100
H723        H  0.54976076  0.22418456  0.80683968     0.15100
N724        N  0.51226396  0.21847022  0.68118479    -0.01200
C725        C  0.54353067  0.24287540  0.68946449     0.01400
C726        C  0.52955472  0.28242403  0.69174124    -0.21500
C727        C  0.48904593  0.28245355  0.68567967    -0.21700
C728        C  0.47815328  0.24281879  0.68102434     0.01300
H729        H  0.54624951  0.30869603  0.69951332     0.15100
H730        H  0.46953292  0.30885681  0.68799933     0.15100
N731        N  0.50387965  0.82930900  0.30506925    -0.01200
C732        C  0.53466584  0.80160254  0.29901024     0.01400
C733        C  0.52026950  0.76666744  0.28281379    -0.21500
C734        C  0.47995131  0.77255130  0.27813137    -0.21700
C735        C  0.46971715  0.81094025  0.29203708     0.01300
H736        H  0.53755213  0.74029211  0.27323711     0.15100
H737        H  0.46032947  0.75130145  0.26416844     0.15100
N738        N  0.50114867  0.73326239  0.15037066    -0.01200
C739        C  0.53764159  0.73906732  0.16607428     0.01400
C740        C  0.53960606  0.77702359  0.18312441    -0.21500
C741        C  0.50278201  0.79526485  0.17782823    -0.21700
C742        C  0.48006445  0.76771024  0.15782767     0.01300
H743        H  0.56510218  0.79036570  0.19725139     0.15100
H744        H  0.49322997  0.82486417  0.18846230     0.15100
N745        N  0.80848505  0.50540027  0.33771442    -0.01200
C746        C  0.78265128  0.47560904  0.32911347     0.01400
C747        C  0.74368019  0.48922721  0.33769001    -0.21500
C748        C  0.74549229  0.52866105  0.34954247    -0.21700
C749        C  0.78517953  0.53836743  0.34800473     0.01300
H750        H  0.71614097  0.47333590  0.33444081     0.15100
H751        H  0.72014682  0.54905736  0.35492410     0.15100
N752        N  0.68213218  0.52678166  0.17967374    -0.01200
C753        C  0.68607483  0.55190112  0.21164303     0.01400
C754        C  0.68782727  0.52975272  0.24675178    -0.21500
C755        C  0.68645661  0.49009867  0.23592678    -0.21700
C756        C  0.68437044  0.48889314  0.19468133     0.01300
H757        H  0.69361602  0.54040093  0.27678835     0.15100
H758        H  0.69167559  0.46484375  0.25561040     0.15100
N759        N  0.50544831  0.68423178  0.79863788    -0.01200
C760        C  0.53700760  0.67600550  0.77391635     0.01400
C761        C  0.52430221  0.67175564  0.73496029    -0.21500
C762        C  0.48346434  0.67880556  0.73557287    -0.21700
C763        C  0.47238879  0.68694063  0.77517407     0.01300
H764        H  0.54299907  0.66782077  0.70853062     0.15100
H765        H  0.46480556  0.68094658  0.70924361     0.15100
N766        N  0.52263017  0.83714346  0.66758155    -0.01200
C767        C  0.48832682  0.81577759  0.66828471     0.01400
C768        C  0.49719181  0.77550667  0.67402210    -0.21500
C769        C  0.53766508  0.77175582  0.67883883    -0.21700
C770        C  0.55300980  0.80994086  0.67553209     0.01300
H771        H  0.47594094  0.75216622  0.67935271     0.15100
H772        H  0.55328664  0.74444040  0.68797297     0.15100
N773        N  0.87630201  0.51649459  0.71739747    -0.01200
C774        C  0.87487839  0.53957204  0.75091423     0.01400
C775        C  0.87412962  0.51623972  0.78494192    -0.21500
C776        C  0.87485476  0.47705504  0.77202207    -0.21700
C777        C  0.87636245  0.47815585  0.73066892     0.01300
H778        H  0.87166346  0.52664644  0.81571462     0.15100
H779        H  0.87287280  0.45063556  0.79059787     0.15100
N780        N  0.70417255  0.51741014  0.80522831    -0.01200
C781        C  0.71326141  0.55014103  0.78224259     0.01400
C782        C  0.72959249  0.53712408  0.74589270    -0.21500
C783        C  0.73116986  0.49617736  0.74627238    -0.21700
C784        C  0.71608496  0.48446699  0.78286787     0.01300
H785        H  0.74183620  0.55532841  0.72230970     0.15100
H786        H  0.74389257  0.47700338  0.72287433     0.15100
N787        N  0.34220631  0.51152591  0.79305026    -0.01200
C788        C  0.33912489  0.48115019  0.76587213     0.01400
C789        C  0.34870584  0.49519910  0.72787242    -0.21500
C790        C  0.35557051  0.53544196  0.73164819    -0.21700
C791        C  0.35013174  0.54499846  0.77148573     0.01300
H792        H  0.34809734  0.47940259  0.69949226     0.15100
H793        H  0.35979024  0.55622692  0.70728348     0.15100
N794        N  0.19329851  0.54401496  0.67124283    -0.01200
C795        C  0.22218760  0.57146032  0.67358468     0.01400
C796        C  0.25933354  0.55223917  0.67824402    -0.21500
C797        C  0.25272653  0.51184148  0.67978004    -0.21700
C798        C  0.21204450  0.50774516  0.67610862     0.01300
H799        H  0.28769201  0.56595436  0.68394265     0.15100
H800        H  0.27449138  0.48838681  0.68711735     0.15100
N801        N  0.06370082  0.44061889  0.47519826    -0.03800
N802        N  0.09579248  0.41847249  0.46421341    -0.56000
N803        N  0.96882739  0.43509871  0.50919239    -0.03500
N804        N  0.93987726  0.41203345  0.52184785    -0.58100
N805        N  0.97078733  0.43543266  0.46983105    -0.03100
N806        N  0.94263646  0.41268162  0.45484946    -0.55900
N807        N  0.06027130  0.44099370  0.51457785    -0.02800
N808        N  0.08979425  0.41972777  0.53101420    -0.58400
C809        C  0.11171271  0.40550186  0.49953686     0.98300
C810        C  0.92388844  0.39795856  0.48764979     0.98100
N811        N  0.95363895  0.54101809  0.57709681    -0.04000
N812        N  0.92198345  0.55149825  0.59911490    -0.56500
N813        N  0.04810506  0.50699184  0.58171394    -0.02100
N814        N  0.07822120  0.49294700  0.60306065    -0.57800
N815        N  0.04563568  0.54649239  0.58384813    -0.04100
N816        N  0.07470009  0.56006205  0.60681424    -0.56800
N817        N  0.95712147  0.50159367  0.57435351    -0.01800
N818        N  0.92760450  0.48465601  0.59362446    -0.57900
Mn819      Mn  0.00861026  0.47071892  0.54560434     1.18400
C820        C  0.90574261  0.51595929  0.60885230     1.00400
C821        C  0.09445174  0.52599302  0.61881448     1.01100
N822        N  0.96757618  0.50541837  0.40529167    -0.04100
N823        N  0.93651415  0.49105987  0.38571278    -0.60400
N824        N  0.05546091  0.55178421  0.41198428    -0.02900
N825        N  0.08498717  0.57004926  0.39421219    -0.61100
N826        N  0.06057086  0.51241444  0.40979336    -0.03600
N827        N  0.09426143  0.50332655  0.39011828    -0.60600
N828        N  0.96461750  0.54497833  0.40697947    -0.02500
N829        N  0.93202430  0.55797294  0.38855207    -0.61300
Mn830      Mn  0.01608473  0.47233962  0.43854017     1.10700
C831        C  0.91475825  0.52436658  0.37491228     1.01600
C832        C  0.10881520  0.53978428  0.38034606     1.01700
N833        N  0.04417965  0.61574304  0.51940666    -0.03600
N834        N  0.07305140  0.63619681  0.53605291    -0.59000
N835        N  0.95448880  0.61125895  0.47382451    -0.02900
N836        N  0.92453036  0.63206080  0.45765487    -0.55700
N837        N  0.95169900  0.61182962  0.51317588    -0.04200
N838        N  0.91977653  0.63379983  0.52459387    -0.58500
N839        N  0.04708745  0.61691285  0.48007662    -0.03200
N840        N  0.07816834  0.63841248  0.46929813    -0.55700
Mn841      Mn  0.99854449  0.57982600  0.54955281     1.20200
Mn842      Mn  0.00541183  0.58189885  0.44237992     1.10100
Cl843      Cl  0.00737668  0.52615363  0.49390141    -0.83700
C844        C  0.09385282  0.65069207  0.50466406     0.98600
C845        C  0.90319353  0.64620703  0.48947014     0.98400
N846        N  0.53187971  0.43528501  0.02674059    -0.03800
N847        N  0.54733179  0.41319226  0.05622226    -0.56000
N848        N  0.48843316  0.44061712  0.93627069    -0.03500
N849        N  0.47583809  0.41575383  0.90826501    -0.58100
N850        N  0.52768159  0.44273541  0.93444047    -0.03100
N851        N  0.54217765  0.41958717  0.90528247    -0.55900
N852        N  0.49246551  0.43461014  0.02808661    -0.02800
N853        N  0.48041264  0.41268274  0.05825652    -0.58400
C854        C  0.51460510  0.39919697  0.07541257     0.98300
C855        C  0.50964441  0.40325973  0.88861230     0.98100
N856        N  0.41333432  0.54391381  0.95028043    -0.04000
N857        N  0.39080735  0.56017478  0.92209482    -0.56500
N858        N  0.42040480  0.49693138  0.03792183    -0.02100
N859        N  0.39967338  0.47980890  0.06672847    -0.57800
N860        N  0.41775909  0.53628230  0.04175284    -0.04100
N861        N  0.39476617  0.54680132  0.07273099    -0.56800
N862        N  0.41609737  0.50467665  0.94547706    -0.01800
N863        N  0.39522708  0.49349508  0.91385430    -0.57900
Mn864      Mn  0.45362684  0.46823757  0.98664458     1.18400
C865        C  0.37923505  0.52855315  0.89977094     1.00400
C866        C  0.38363784  0.51125562  0.08805597     1.01100
N867        N  0.59168634  0.51219197  0.93575458    -0.04100
N868        N  0.61643036  0.50221648  0.90575698    -0.60400
N869        N  0.59294144  0.54367465  0.03197534    -0.02900
N870        N  0.61409027  0.55456655  0.06370986    -0.61100
N871        N  0.59486101  0.50434698  0.02766822    -0.03600
N872        N  0.61717172  0.48779479  0.05578160    -0.60600
N873        N  0.58795439  0.55163035  0.93895774    -0.02500
N874        N  0.60957455  0.56910136  0.91100530    -0.61300
Mn875      Mn  0.56234512  0.47280723  0.98086841     1.10700
C876        C  0.62736160  0.53807152  0.89048403     1.01600
C877        C  0.62945770  0.51914529  0.07790218     1.01700
N878        N  0.48144974  0.60479915  0.04406166    -0.03600
N879        N  0.46855879  0.62366666  0.07686688    -0.59000
N880        N  0.51394325  0.61468363  0.94932793    -0.02900
N881        N  0.52259809  0.63770415  0.91843666    -0.55700
N882        N  0.47481309  0.61253230  0.95315830    -0.04200
N883        N  0.45628771  0.63369336  0.92530107    -0.58500
N884        N  0.52075505  0.60583389  0.04139807    -0.03200
N885        N  0.53544653  0.62457506  0.07271199    -0.55700
Mn886      Mn  0.44612612  0.57520150  0.99767623     1.20200
Mn887      Mn  0.55472481  0.58018145  0.99021897     1.10100
Cl888      Cl  0.50428773  0.52410205  0.98858023    -0.83700
C889        C  0.50270726  0.63511015  0.09464811     0.98600
C890        C  0.48618420  0.64959187  0.90399444     0.98400
N891        N  0.52131317  0.07946018  0.57487253    -0.03800
N892        N  0.53340110  0.10951131  0.59802775    -0.56000
N893        N  0.48064720  0.98704954  0.57912231    -0.03500
N894        N  0.46646766  0.95748691  0.60068796    -0.58100
N895        N  0.52008143  0.98617308  0.58025768    -0.03100
N896        N  0.53335252  0.95572589  0.60248311    -0.55900
N897        N  0.48189941  0.07940990  0.57450622    -0.02800
N898        N  0.46652705  0.10933125  0.59621377    -0.58400
C899        C  0.49855876  0.12771866  0.61119465     0.98300
C900        C  0.49949539  0.93830290  0.61547022     0.98100
N901        N  0.41051276  0.98874019  0.47253855    -0.04000
N902        N  0.38677390  0.96097862  0.45895914    -0.56500
N903        N  0.41792546  0.08069306  0.50834225    -0.02100
N904        N  0.39774583  0.11266751  0.52177163    -0.57800
N905        N  0.41833487  0.08005947  0.46892295    -0.04100
N906        N  0.39799325  0.11145809  0.45490425    -0.56800
N907        N  0.41144449  0.98854901  0.51196116    -0.01800
N908        N  0.38777724  0.96054072  0.52600271    -0.57900
Mn909      Mn  0.44715918  0.03345305  0.54427770     1.18400
C910        C  0.37249088  0.94382589  0.49233461     1.00400
C911        C  0.38598640  0.13202324  0.48824655     1.01100
N912        N  0.58437221  0.97667350  0.51265355    -0.04100
N913        N  0.60630524  0.94751529  0.52895062    -0.60400
N914        N  0.58810184  0.06273355  0.46342565    -0.02900
N915        N  0.60982121  0.08944845  0.44467127    -0.61100
N916        N  0.58901621  0.06883303  0.50256229    -0.03600
N917        N  0.61229134  0.09945707  0.51088160    -0.60600
N918        N  0.58113173  0.97061435  0.47375783    -0.02500
N919        N  0.60052853  0.93714365  0.46300168    -0.61300
Mn920      Mn  0.55502923  0.02857073  0.54353229     1.10700
C921        C  0.61586280  0.92285493  0.49768078     1.01600
C922        C  0.62534628  0.11187628  0.47437855     1.01700
N923        N  0.48339224  0.06806232  0.39909025    -0.03600
N924        N  0.47350360  0.09854150  0.37542829    -0.59000
N925        N  0.51325882  0.97014342  0.40502378    -0.02900
N926        N  0.52266359  0.93790161  0.38276752    -0.55700
N927        N  0.47416915  0.97643967  0.40533316    -0.04200
N928        N  0.45624719  0.94853796  0.38419593    -0.58500
N929        N  0.52233585  0.06141682  0.39834785    -0.03200
N930        N  0.53977476  0.08704015  0.37464270    -0.55700
Mn931      Mn  0.44574302  0.02890416  0.43582069     1.20200
Mn932      Mn  0.55216721  0.01542203  0.43460195     1.10100
Cl933      Cl  0.50009725  0.02662666  0.48960063    -0.83700
C934        C  0.50920647  0.10976042  0.36013348     0.98600
C935        C  0.48662372  0.92466708  0.37008604     0.98400
O936        O  0.19625947  0.38171360  0.29084095    -0.85900
C937        C  0.24696321  0.15575230  0.30032366     1.14100
O938        O  0.23179184  0.31849379  0.23402837    -1.33700
O939        O  0.27992928  0.23830085  0.35368631    -0.87400
O940        O  0.21425207  0.40946058  0.23262625    -0.88100
O941        O  0.31220991  0.36496210  0.24176822    -0.76900
O942        O  0.23004708  0.30664267  0.32350524    -0.99000
C943        C  0.37180748  0.26835202  0.25981942     1.24200
O944        O  0.29684883  0.28370160  0.19351640    -1.33900
Mn945      Mn  0.24014438  0.25989368  0.20856848     1.82100
O946        O  0.35022510  0.29830795  0.26880147    -0.75900
O947        O  0.33499883  0.21414645  0.32176376    -0.85300
C948        C  0.27756456  0.17913674  0.19026252     1.15300
C949        C  0.31666802  0.22687291  0.35285337     1.10000
O950        O  0.21251834  0.27056502  0.15389480    -0.76900
O951        O  0.27064973  0.24953073  0.26451396    -1.30600
O952        O  0.23773063  0.32791136  0.14378752    -0.96100
C953        C  0.38730145  0.31434683  0.15801811     1.08700
Mn954      Mn  0.31767897  0.20342146  0.26315130     1.48600
O955        O  0.35750421  0.33825280  0.15329442    -0.85300
Mn956      Mn  0.22405217  0.36459163  0.18922371     1.49600
O957        O  0.14213451  0.32764352  0.24205399    -0.89200
C958        C  0.25746964  0.32717856  0.33528283     1.21900
C959        C  0.13734191  0.33697063  0.20544051     1.14000
Mn960      Mn  0.29189359  0.30831961  0.25306346     1.81000
O961        O  0.30814524  0.19202055  0.20568775    -0.94300
Mn962      Mn  0.18951671  0.32048126  0.28244091     1.49300
C963        C  0.20638348  0.41141616  0.26988658     1.10500
Mn964      Mn  0.34138070  0.23653395  0.18468577     1.49900
C965        C  0.31130019  0.24939636  0.09783625     1.13400
O966        O  0.28228113  0.37407981  0.18611517    -1.00100
O967        O  0.28056465  0.15913530  0.28302235    -0.89800
C968        C  0.30351618  0.38710926  0.21287911     1.24700
O969        O  0.35761991  0.23990132  0.24153100    -1.00500
O970        O  0.22415866  0.18536616  0.31033020    -0.87900
O971        O  0.32263037  0.22667142  0.12624883    -0.87500
O972        O  0.16361151  0.35300274  0.18376194    -0.87500
Mn973      Mn  0.23179842  0.24743222  0.31542714     1.47900
O974        O  0.24846257  0.20290830  0.18504371    -0.76000
C975        C  0.21798203  0.29991891  0.13141092     1.17700
O976        O  0.28637907  0.33204306  0.31173842    -0.74700
O977        O  0.18471473  0.23688325  0.22388190    -0.74400
Mn978      Mn  0.29634411  0.32941615  0.14799420     1.51100
O979        O  0.38435036  0.27720534  0.16605406    -0.86700
O980        O  0.18522783  0.26171103  0.28265897    -0.94200
O981        O  0.30526558  0.28717219  0.10145833    -0.89300
C982        C  0.16839476  0.24169178  0.25745556     1.15500
C983        C  0.13488391  0.52327986  0.63558742    -0.14200
C984        C  0.15245927  0.55113357  0.65824105    -0.29300
H985        H  0.15128258  0.49556279  0.62833699     0.14900
H986        H  0.13722505  0.57986023  0.66417510     0.15400
C987        C  0.36569045  0.53439723  0.85830048    -0.14200
C988        C  0.34723839  0.50658642  0.83598419    -0.29300
H989        H  0.37385952  0.56271500  0.84548412     0.14900
H990        H  0.34030737  0.47809737  0.84964512     0.15400
C991        C  0.68161226  0.51505823  0.84263235    -0.14200
C992        C  0.65463525  0.54354744  0.85528190    -0.29300
H993        H  0.68344266  0.48706551  0.85917554     0.14900
H994        H  0.65168111  0.57166494  0.83920940     0.15400
C995        C  0.88083516  0.51035575  0.64451334    -0.14200
C996        C  0.88899314  0.53000021  0.67853211    -0.29300
H997        H  0.86094400  0.48529494  0.64443291     0.14900
H998        H  0.90915746  0.55504773  0.67751182     0.15400
C999        C  0.52652827  0.87868355  0.65486621    -0.14200
C1000       C  0.49759514  0.89751499  0.63298471    -0.29300
H1001       H  0.55434223  0.89382239  0.66040257     0.14900
H1002       H  0.47048268  0.88203149  0.62609747     0.15400
C1003       C  0.50783346  0.68194820  0.84174810    -0.14200
C1004       C  0.47927565  0.66452077  0.86316936    -0.29300
H1005       H  0.53625272  0.68743673  0.85616340     0.14900
H1006       H  0.45112347  0.65713648  0.84927649     0.15400
C1007       C  0.64685426  0.51216485  0.11798231    -0.14200
C1008       C  0.66859342  0.53787787  0.13977562    -0.29300
H1009       H  0.64128883  0.48265012  0.12997094     0.14900
H1010       H  0.67331089  0.56797886  0.12866537     0.15400
C1011       C  0.87119545  0.52501248  0.36775557    -0.14200
C1012       C  0.85172351  0.50127750  0.34182582    -0.29300
H1013       H  0.85437841  0.54769486  0.38481223     0.14900
H1014       H  0.86826223  0.47780589  0.32544866     0.15400
C1015       C  0.48940915  0.70106829  0.12420998    -0.14200
C1016       C  0.50449967  0.66358379  0.12799090    -0.29300
H1017       H  0.46982667  0.70822529  0.09916024     0.14900
H1018       H  0.52377017  0.65555409  0.15284315     0.15400
C1019       C  0.47973669  0.88785832  0.34549222    -0.14200
C1020       C  0.50909203  0.86783105  0.32512135    -0.29300
H1021       H  0.44956373  0.87683717  0.34511595     0.14900
H1022       H  0.53910615  0.87936921  0.32688562     0.15400
C1023       C  0.51744214  0.17853607  0.66361382    -0.14200
C1024       C  0.49373893  0.16629605  0.63363203    -0.29300
H1025       H  0.54352736  0.16004878  0.67145345     0.14900
H1026       H  0.46789861  0.18497516  0.62559727     0.15400
C1027       C  0.50466810  0.35551356  0.83239812    -0.14200
C1028       C  0.51320178  0.36305010  0.87082752    -0.29300
H1029       H  0.49214739  0.37932317  0.81374017     0.14900
H1030       H  0.52410295  0.33901815  0.89005760     0.15400
C1031       C  0.85346024  0.69837829  0.51245446    -0.14200
C1032       C  0.86558762  0.67063524  0.48514640    -0.29300
H1033       H  0.87185540  0.70239635  0.53887014     0.14900
H1034       H  0.84797812  0.66561876  0.45850504     0.15400
C1035       C  0.68247254  0.89973652  0.51960145    -0.14200
C1036       C  0.64974159  0.89381655  0.49741653    -0.29300
H1037       H  0.68073997  0.92097659  0.54452457     0.14900
H1038       H  0.65048518  0.87201328  0.47327626     0.15400
C1039       C  0.66980625  0.16757058  0.49358280    -0.14200
C1040       C  0.64543392  0.15058381  0.46672129    -0.29300
H1041       H  0.67653361  0.15082101  0.52067898     0.14900
H1042       H  0.63756595  0.16674982  0.43959304     0.15400
C1043       C  0.88507750  0.37800876  0.48551619    -0.14200
C1044       C  0.86702933  0.35885925  0.51628236    -0.29300
H1045       H  0.87018151  0.38131665  0.45702959     0.14900
H1046       H  0.88147057  0.35761349  0.54535324     0.15400
C1047       C  0.15550108  0.68683040  0.48237891    -0.14200
C1048       C  0.13460166  0.66635114  0.50998894    -0.29300
H1049       H  0.14183605  0.69300199  0.45353493     0.14900
H1050       H  0.14838465  0.65873479  0.53826744     0.15400
C1051       C  0.33297259  0.88795228  0.52051696    -0.14200
C1052       C  0.35163989  0.90567281  0.48990274    -0.29300
H1053       H  0.33261442  0.90228903  0.54988805     0.14900
H1054       H  0.35368453  0.89074228  0.46099714     0.15400
C1055       C  0.71453609  0.59370499  0.79432701    -0.14200
C1056       C  0.71410907  0.62222936  0.76532935    -0.29300
H1057       H  0.72035057  0.60170222  0.82531901     0.14900
H1058       H  0.70568586  0.61343394  0.73517191     0.15400
C1059       C  0.85194336  0.60568171  0.72415904    -0.14200
C1060       C  0.86999486  0.58344537  0.75271225    -0.29300
H1061       H  0.84432703  0.59353580  0.69503647     0.14900
H1062       H  0.87652553  0.59735555  0.78149923     0.15400
C1063       C  0.62295041  0.78846939  0.68863132    -0.14200
C1064       C  0.59490918  0.81873326  0.68808456    -0.29300
H1065       H  0.61645867  0.76035799  0.67361429     0.14900
H1066       H  0.60129329  0.84792296  0.70089263     0.15400
C1067       C  0.58814504  0.71835851  0.80007825    -0.14200
C1068       C  0.57920528  0.68260115  0.78443372    -0.29300
H1069       H  0.56390557  0.74019206  0.80613216     0.14900
H1070       H  0.60271823  0.66200849  0.77351850     0.15400
C1071       C  0.78310333  0.72230338  0.61507365    -0.14200
C1072       C  0.80891191  0.73291192  0.58622788    -0.29300
H1073       H  0.75547800  0.70854716  0.60567393     0.14900
H1074       H  0.83751644  0.74561676  0.59366808     0.15400
C1075       C  0.75539251  0.87438356  0.57293167    -0.14200
C1076       C  0.72741974  0.85374984  0.59233148    -0.29300
H1077       H  0.78304490  0.88133193  0.58829889     0.14900
H1078       H  0.69922419  0.84616113  0.57862729     0.15400
C1079       C  0.03766392  0.70055068  0.84190655    -0.14200
C1080       C  0.00927780  0.67821327  0.85931002    -0.29300
H1081       H  0.06763723  0.68783303  0.83716984     0.14900
H1082       H  0.98009673  0.69152566  0.86603164     0.15400
C1083       C  0.95770100  0.74130825  0.81125963    -0.14200
C1084       C  0.92183504  0.73637933  0.82870339    -0.29300
H1085       H  0.96259971  0.73218737  0.78023784     0.14900
H1086       H  0.91793577  0.74341913  0.86039058     0.15400
C1087       C  0.98683618  0.86226693  0.65225851    -0.14200
C1088       C  0.01628432  0.88140334  0.63259104    -0.29300
H1089       H  0.95751035  0.86018869  0.63865330     0.14900
H1090       H  0.04489292  0.88495232  0.64696504     0.15400
C1091       C  0.92265899  0.83958680  0.72006580    -0.14200
C1092       C  0.89887350  0.83618624  0.75283552    -0.29300
H1093       H  0.91255533  0.82847843  0.69125965     0.14900
H1094       H  0.90810438  0.84808242  0.78152070     0.15400
C1095       C  0.66187999  0.02025111  0.83900570    -0.14200
C1096       C  0.65044891  0.04905289  0.86573496    -0.29300
H1097       H  0.64345583  0.99405486  0.83595645     0.14900
H1098       H  0.66885341  0.07503478  0.86995846     0.15400
C1099       C  0.73558636  0.91415195  0.82013914    -0.14200
C1100       C  0.70884476  0.94339763  0.81017329    -0.29300
H1101       H  0.76251829  0.92276479  0.83585496     0.14900
H1102       H  0.68092007  0.93635010  0.79557517     0.15400
C1103       C  0.88825255  0.04122276  0.64019400    -0.14200
C1104       C  0.86864395  0.01325824  0.66065450    -0.29300
H1105       H  0.89665668  0.06869566  0.65517494     0.14900
H1106       H  0.86172297  0.98508458  0.64592288     0.15400
C1107       C  0.85023849  0.94634613  0.72039608    -0.14200
C1108       C  0.81119994  0.94142974  0.71317092    -0.29300
H1109       H  0.87067383  0.92068673  0.72418141     0.14900
H1110       H  0.79087343  0.96758772  0.71284204     0.15400
C1111       C  0.83151180  0.66754727  0.00940683    -0.14200
C1112       C  0.85484824  0.65515296  0.97817702    -0.29300
H1113       H  0.83162617  0.64927865  0.03625679     0.14900
H1114       H  0.85634316  0.67343528  0.95154601     0.15400
C1115       C  0.79650338  0.72248473  0.93576056    -0.14200
C1116       C  0.79907142  0.75390260  0.91039933    -0.29300
H1117       H  0.79001164  0.69262171  0.92468611     0.14900
H1118       H  0.80796365  0.78274286  0.92242221     0.15400
C1119       C  0.61672066  0.87773978  0.01708615    -0.14200
C1120       C  0.61798191  0.84617320  0.99232603    -0.29300
H1121       H  0.62839972  0.87512922  0.04714805     0.14900
H1122       H  0.60469100  0.84982644  0.96282408     0.15400
C1123       C  0.63869563  0.77552663  0.93686479    -0.14200
C1124       C  0.66288820  0.80297668  0.92113203    -0.29300
H1125       H  0.63035782  0.74970008  0.91883151     0.14900
H1126       H  0.67286102  0.82890738  0.93779964     0.15400
C1127       C  0.81876165  0.59248757  0.31351360    -0.14200
C1128       C  0.79664797  0.58102643  0.34476765    -0.29300
H1129       H  0.83136629  0.56948414  0.29341376     0.14900
H1130       H  0.77964239  0.60365013  0.36194368     0.15400
C1131       C  0.69844494  0.61753251  0.24305102    -0.14200
C1132       C  0.69680547  0.59487962  0.20947044    -0.29300
H1133       H  0.68652021  0.60638650  0.27102473     0.14900
H1134       H  0.70677186  0.60684602  0.18103073     0.15400
C1135       C  0.59119051  0.70045323  0.19514984    -0.14200
C1136       C  0.57253700  0.71181518  0.16171453    -0.29300
H1137       H  0.57346113  0.69886316  0.22250606     0.14900
H1138       H  0.58985374  0.71540796  0.13432045     0.15400
C1139       C  0.60476441  0.77632740  0.31053632    -0.14200
C1140       C  0.57885249  0.80778819  0.30334422    -0.29300
H1141       H  0.59273786  0.74790656  0.31996608     0.14900
H1142       H  0.59045038  0.83685794  0.29552475     0.15400
C1143       C  0.70517435  0.84545349  0.42182770    -0.14200
C1144       C  0.71379088  0.88321478  0.43195720    -0.29300
H1145       H  0.70548585  0.82246983  0.44485594     0.14900
H1146       H  0.71869271  0.90500507  0.40838373     0.15400
C1147       C  0.76857564  0.71795897  0.40882881    -0.14200
C1148       C  0.79879728  0.72399114  0.43503286    -0.29300
H1149       H  0.73994970  0.70857137  0.42058531     0.14900
H1150       H  0.82839494  0.73136382  0.42425828     0.15400
C1151       C  0.67883084  0.79765148  0.08884407    -0.14200
C1152       C  0.64070922  0.80723637  0.07933963    -0.29300
H1153       H  0.69885186  0.78667550  0.06511554     0.14900
H1154       H  0.61899047  0.81407421  0.10299019     0.15400
C1155       C  0.81195551  0.74171994  0.11529407    -0.14200
C1156       C  0.80388509  0.71370357  0.08717356    -0.29300
H1157       H  0.82389403  0.77005910  0.10533313     0.14900
H1158       H  0.79301800  0.68450730  0.09560603     0.15400
C1159       C  0.61346676  0.98537284  0.15890713    -0.14200
C1160       C  0.64931842  0.00192269  0.16233059    -0.29300
H1161       H  0.60615328  0.96013223  0.17775539     0.14900
H1162       H  0.65616332  0.02738523  0.14354007     0.15400
C1163       C  0.68323333  0.91728477  0.19905554    -0.14200
C1164       C  0.72009913  0.89944623  0.19571715    -0.29300
H1165       H  0.65743484  0.89879735  0.20405387     0.14900
H1166       H  0.74591984  0.91809484  0.19127653     0.15400
C1167       C  0.85219302  0.02013255  0.35467599    -0.14200
C1168       C  0.87735179  0.04651258  0.37007643    -0.29300
H1169       H  0.84492333  0.99386922  0.37214948     0.14900
H1170       H  0.88565137  0.07258015  0.35293120     0.15400
C1171       C  0.82875241  0.94781007  0.30538361    -0.14200
C1172       C  0.79518631  0.93066225  0.29327774    -0.29300
H1173       H  0.84780511  0.93389680  0.32793924     0.14900
H1174       H  0.77588258  0.94731568  0.27276537     0.15400
C1175       C  0.99195796  0.85095909  0.35353618    -0.14200
C1176       C  0.02112990  0.87406390  0.36834669    -0.29300
H1177       H  0.96294187  0.85233866  0.36841118     0.14900
H1178       H  0.05004919  0.87371680  0.35363187     0.15400
C1179       C  0.92207680  0.81451338  0.30382236    -0.14200
C1180       C  0.89629898  0.81603925  0.27263274    -0.29300
H1181       H  0.91145559  0.80906668  0.33406145     0.14900
H1182       H  0.90774474  0.82375884  0.24317942     0.15400
C1183       C  0.98262573  0.62015727  0.15540489    -0.14200
C1184       C  0.01122624  0.63725882  0.17722287    -0.29300
H1185       H  0.95417771  0.61306602  0.16885877     0.14900
H1186       H  0.03958095  0.64319639  0.16259469     0.15400
C1187       C  0.93589106  0.64199450  0.23778566    -0.14200
C1188       C  0.92512628  0.67828993  0.22334241    -0.29300
H1189       H  0.91338157  0.62392621  0.25221221     0.14900
H1190       H  0.94735873  0.69887888  0.21260931     0.15400
C1191       C  0.24516181  0.64003467  0.67793016    -0.14200
C1192       C  0.21479410  0.61485033  0.68062993    -0.29300
H1193       H  0.27307888  0.63006755  0.66366251     0.14900
H1194       H  0.18628455  0.62496032  0.69353022     0.15400
C1195       C  0.30246116  0.59581960  0.79675706    -0.14200
C1196       C  0.33971302  0.58667646  0.78394927    -0.29300
H1197       H  0.28102431  0.57199223  0.79949325     0.14900
H1198       H  0.35996837  0.61045798  0.77633328     0.15400
C1199       C  0.43240708  0.70436825  0.78784787    -0.14200
C1200       C  0.40042012  0.70023069  0.76410662    -0.29300
H1201       H  0.43012160  0.72305030  0.81464327     0.14900
H1202       H  0.40345320  0.68084724  0.73785938     0.15400
C1203       C  0.44800378  0.83201917  0.67964717    -0.14200
C1204       C  0.43630621  0.82775142  0.71792584    -0.29300
H1205       H  0.42632778  0.83955798  0.65656210     0.14900
H1206       H  0.45860063  0.81778582  0.73967167     0.15400
C1207       C  0.32555673  0.79856043  0.61477046    -0.14200
C1208       C  0.31690010  0.82785137  0.58868549    -0.29300
H1209       H  0.34122462  0.77134989  0.60425765     0.14900
H1210       H  0.30222898  0.85572784  0.59873101     0.15400
C1211       C  0.20262413  0.70764561  0.56340828    -0.14200
C1212       C  0.21088906  0.74505405  0.57613556    -0.29300
H1213       H  0.19090314  0.68593442  0.58421732     0.14900
H1214       H  0.22427900  0.76557446  0.55502557     0.15400
C1215       C  0.11507130  0.75330226  0.80177995    -0.14200
C1216       C  0.09806793  0.77358166  0.83280449    -0.29300
H1217       H  0.09725720  0.73242076  0.78477587     0.14900
H1218       H  0.11541134  0.79567966  0.84872083     0.15400
C1219       C  0.06552036  0.82920435  0.69513302    -0.14200
C1220       C  0.10100244  0.84617803  0.69998946    -0.29300
H1221       H  0.06361478  0.79967749  0.68125974     0.14900
H1222       H  0.10221617  0.87673068  0.71163475     0.15400
C1223       C  0.37564950  0.04441662  0.82853538    -0.14200
C1224       C  0.38930803  0.07237812  0.85397189    -0.29300
H1225       H  0.39571838  0.01933354  0.82036407     0.14900
H1226       H  0.36993623  0.09744474  0.86357604     0.15400
C1227       C  0.33453509  0.96528377  0.81265700    -0.14200
C1228       C  0.32104083  0.93075482  0.82712487    -0.29300
H1229       H  0.35518031  0.96476212  0.78734042     0.14900
H1230       H  0.30189298  0.93091469  0.85358754     0.15400
C1231       C  0.14505002  0.02861018  0.63886743    -0.14200
C1232       C  0.17326818  0.00797020  0.65929078    -0.29300
H1233       H  0.12798766  0.05265726  0.65382172     0.14900
H1234       H  0.19008776  0.98362032  0.64454314     0.15400
C1235       C  0.20264406  0.94680457  0.72276169    -0.14200
C1236       C  0.20930596  0.92124360  0.75311996    -0.29300
H1237       H  0.20942258  0.93696255  0.69232871     0.14900
H1238       H  0.20100134  0.93004672  0.78345254     0.15400
C1239       C  0.36598360  0.90807305  0.96128736    -0.14200
C1240       C  0.34866863  0.88386721  0.98800534    -0.29300
H1241       H  0.35079165  0.91598949  0.93365462     0.14900
H1242       H  0.36427893  0.87737810  0.01581635     0.15400
C1243       C  0.29648362  0.84946989  0.91537124    -0.14200
C1244       C  0.27470818  0.81879737  0.90136573    -0.29300
H1245       H  0.32196844  0.85994840  0.89861688     0.14900
H1246       H  0.24926463  0.80938497  0.91884879     0.15400
C1247       C  0.17334479  0.67842244  0.00268698    -0.14200
C1248       C  0.14265757  0.66287712  0.02262097    -0.29300
H1249       H  0.18644006  0.66131342  0.97775258     0.14900
H1250       H  0.12895974  0.67934397  0.04761894     0.15400
C1251       C  0.21359090  0.73032910  0.93993080    -0.14200
C1252       C  0.19712793  0.71067943  0.90922310    -0.29300
H1253       H  0.24391174  0.74095094  0.93740631     0.14900
H1254       H  0.16602676  0.70207773  0.91087528     0.15400
C1255       C  0.87148903  0.44195254  0.70630075    -0.14200
C1256       C  0.83405672  0.42944274  0.70189622    -0.29300
H1257       H  0.89598186  0.41971164  0.70745337     0.14900
H1258       H  0.80947057  0.45132096  0.70546357     0.15400
C1259       C  0.71264378  0.41252652  0.76681781    -0.14200
C1260       C  0.71722658  0.44121956  0.79521422    -0.29300
H1261       H  0.70161147  0.42195554  0.73764798     0.14900
H1262       H  0.72612996  0.43319532  0.82542465     0.15400
C1263       C  0.60040695  0.31936601  0.82820392    -0.14200
C1264       C  0.57505953  0.29460968  0.84590612    -0.29300
H1265       H  0.58958483  0.34342348  0.80886125     0.14900
H1266       H  0.58726698  0.26974317  0.86350576     0.15400
C1267       C  0.61568111  0.25739887  0.69814506    -0.14200
C1268       C  0.58619723  0.23014313  0.69928824    -0.29300
H1269       H  0.60862956  0.28655981  0.68522364     0.14900
H1270       H  0.59264815  0.19994575  0.70999915     0.15400
C1271       C  0.70981822  0.20372268  0.58034722    -0.14200
C1272       C  0.67464050  0.22061714  0.56930625    -0.29300
H1273       H  0.73155819  0.19576869  0.55698395     0.14900
H1274       H  0.65473538  0.23361989  0.59212817     0.15400
C1275       C  0.77618135  0.32690317  0.60992138    -0.14200
C1276       C  0.80712374  0.32787405  0.58382885    -0.29300
H1277       H  0.74751470  0.34046291  0.60148705     0.14900
H1278       H  0.83671596  0.31679033  0.59241771     0.15400
C1279       C  0.81201846  0.09535919  0.69511850    -0.14200
C1280       C  0.84828786  0.09141507  0.71213321    -0.29300
H1281       H  0.79426287  0.06891075  0.69024485     0.14900
H1282       H  0.86403742  0.11790443  0.72175024     0.15400
C1283       C  0.74477812  0.12084480  0.80877994    -0.14200
C1284       C  0.71478514  0.09448358  0.80611257    -0.29300
H1285       H  0.77306964  0.11050260  0.82160680     0.14900
H1286       H  0.68534305  0.10392211  0.79551772     0.15400
C1287       C  0.00868729  0.37430430  0.83590636    -0.14200
C1288       C  0.03814502  0.39894417  0.84662975    -0.29300
H1289       H  0.97883682  0.38723512  0.83128047     0.14900
H1290       H  0.06782299  0.38687432  0.85300837     0.15400
C1291       C  0.93444555  0.31757043  0.79556982    -0.14200
C1292       C  0.94172266  0.31278827  0.83481813    -0.29300
H1293       H  0.95941364  0.31785688  0.77449476     0.14900
H1294       H  0.91739843  0.30833283  0.85592448     0.15400
C1295       C  0.00577394  0.19432782  0.64928162    -0.14200
C1296       C  0.03549570  0.17147520  0.63279939    -0.29300
H1297       H  0.97728138  0.19629622  0.63377510     0.14900
H1298       H  0.06397744  0.16794694  0.64789191     0.15400
C1299       C  0.93333697  0.21669780  0.70300008    -0.14200
C1300       C  0.90662629  0.20641425  0.73119306    -0.29300
H1301       H  0.92340808  0.22895545  0.67454496     0.14900
H1302       H  0.91752279  0.19299835  0.75883728     0.15400
C1303       C  0.85849853  0.36969248  0.98414610    -0.14200
C1304       C  0.87828435  0.38749756  0.95400755    -0.29300
H1305       H  0.85231251  0.38708265  0.01131827     0.14900
H1306       H  0.88580987  0.37086895  0.92675816     0.15400
C1307       C  0.83562861  0.30731725  0.91458111    -0.14200
C1308       C  0.83455253  0.27745567  0.88710692    -0.29300
H1309       H  0.82050038  0.33600305  0.90882827     0.14900
H1310       H  0.85111051  0.24953842  0.89259303     0.15400
C1311       C  0.67118077  0.17745726  0.00941214    -0.14200
C1312       C  0.65150963  0.15860875  0.03883546    -0.29300
H1313       H  0.65501379  0.18537647  0.98228659     0.14900
H1314       H  0.66695737  0.14888857  0.06571854     0.15400
C1315       C  0.72385101  0.18134458  0.93341074    -0.14200
C1316       C  0.70991132  0.21813825  0.92349041    -0.29300
H1317       H  0.73366371  0.16036208  0.90998300     0.14900
H1318       H  0.70525503  0.24032418  0.94733010     0.15400
C1319       C  0.70057245  0.45338780  0.17253107    -0.14200
C1320       C  0.68694064  0.41676785  0.18024885    -0.29300
H1321       H  0.72870048  0.45650422  0.15649532     0.14900
H1322       H  0.65800814  0.41393636  0.19488494     0.15400
C1323       C  0.79324957  0.43552783  0.31017129    -0.14200
C1324       C  0.76425593  0.41248709  0.29486218    -0.29300
H1325       H  0.82422515  0.42480642  0.30901279     0.14900
H1326       H  0.73335359  0.42290745  0.29669498     0.15400
C1327       C  0.81880000  0.34007853  0.40490244    -0.14200
C1328       C  0.82721689  0.32320086  0.44008651    -0.29300
H1329       H  0.80360061  0.36938095  0.40358088     0.14900
H1330       H  0.84384847  0.29467121  0.44150286     0.15400
C1331       C  0.70621218  0.25732111  0.39501528    -0.14200
C1332       C  0.70008504  0.22739411  0.42191339    -0.29300
H1333       H  0.69384285  0.28705675  0.40154821     0.14900
H1334       H  0.71078504  0.19697301  0.41510304     0.15400
C1335       C  0.68995897  0.06507248  0.21115532    -0.14200
C1336       C  0.72151901  0.08544144  0.22332419    -0.29300
H1337       H  0.66337699  0.08042138  0.19950539     0.14900
H1338       H  0.74727214  0.06904747  0.23556033     0.15400
C1339       C  0.82954575  0.09655497  0.30045853    -0.14200
C1340       C  0.83711815  0.12587688  0.27411537    -0.29300
H1341       H  0.81293403  0.10317414  0.32791397     0.14900
H1342       H  0.85475278  0.11800342  0.24753913     0.15400
C1343       C  0.80455486  0.30706574  0.07207833    -0.14200
C1344       C  0.84019652  0.32016054  0.05958833    -0.29300
H1345       H  0.78730660  0.28892243  0.05148952     0.14900
H1346       H  0.85846480  0.33896910  0.07840540     0.15400
C1347       C  0.72945085  0.19365283  0.08197730    -0.14200
C1348       C  0.75514619  0.18762355  0.11244998    -0.29300
H1349       H  0.70211863  0.21154580  0.08685005     0.14900
H1350       H  0.78212422  0.16928838  0.10725877     0.15400
C1351       C  0.01255544  0.38700238  0.12100808    -0.14200
C1352       C  0.98583158  0.37398544  0.14778615    -0.29300
H1353       H  0.04075795  0.37046246  0.11692319     0.14900
H1354       H  0.95700760  0.38963736  0.15123152     0.15400
C1355       C  0.06650861  0.34139074  0.18555294    -0.14200
C1356       C  0.10201801  0.32196809  0.18550530    -0.29300
H1357       H  0.06377845  0.37238938  0.19590552     0.14900
H1358       H  0.10473130  0.29126814  0.17430119     0.15400
C1359       C  0.92324696  0.31569035  0.18078492    -0.14200
C1360       C  0.89889230  0.28469289  0.17822904    -0.29300
H1361       H  0.91272675  0.34445066  0.19307693     0.14900
H1362       H  0.90987899  0.25666812  0.16457314     0.15400
C1363       C  0.04382609  0.19502398  0.35250885    -0.14200
C1364       C  0.01870957  0.18822669  0.38314081    -0.29300
H1365       H  0.06906966  0.17426956  0.34724744     0.14900
H1366       H  0.99420347  0.20912543  0.38974254     0.15400
C1367       C  0.10952863  0.23224305  0.30034195    -0.14200
C1368       C  0.12699730  0.22969840  0.26397649    -0.29300
H1369       H  0.12741183  0.23401228  0.32736501     0.14900
H1370       H  0.10849246  0.22665537  0.23746390     0.15400
C1371       C  0.96329669  0.24279595  0.32982695    -0.14200
C1372       C  0.93763177  0.23243757  0.30119341    -0.29300
H1373       H  0.95198431  0.25507942  0.35812344     0.14900
H1374       H  0.94911636  0.22409055  0.27160903     0.15400
C1375       C  0.42698891  0.82718971  0.28798046    -0.14200
C1376       C  0.39690582  0.80067087  0.29193320    -0.29300
H1377       H  0.42100882  0.85758453  0.27758089     0.14900
H1378       H  0.40536274  0.77167613  0.30469687     0.15400
C1379       C  0.41134333  0.74549017  0.16030186    -0.14200
C1380       C  0.43736224  0.77410736  0.15174637    -0.29300
H1381       H  0.42093427  0.71443989  0.16504562     0.14900
H1382       H  0.42685836  0.80512307  0.14809619     0.15400
C1383       C  0.25001564  0.71499437  0.39044149    -0.14200
C1384       C  0.21924211  0.71090674  0.41672498    -0.29300
H1385       H  0.27975357  0.70388737  0.39814118     0.14900
H1386       H  0.18934953  0.72111940  0.40822426     0.15400
C1387       C  0.31150473  0.83733624  0.40930847    -0.14200
C1388       C  0.29481847  0.84518714  0.44512797    -0.29300
H1389       H  0.34176323  0.82449538  0.40733022     0.14900
H1390       H  0.26518179  0.85940947  0.44734600     0.15400
C1391       C  0.07417164  0.81610978  0.30777249    -0.14200
C1392       C  0.10021375  0.82206520  0.27726883    -0.29300
H1393       H  0.08460285  0.80743940  0.33731347     0.14900
H1394       H  0.08780446  0.83240009  0.24892844     0.15400
C1395       C  0.08712221  0.68545178  0.22139814    -0.14200
C1396       C  0.08201686  0.64765004  0.23375914    -0.29300
H1397       H  0.06163996  0.70528190  0.21475437     0.14900
H1398       H  0.10753722  0.63010434  0.24497335     0.15400
C1399       C  0.17682740  0.76043581  0.11174425    -0.14200
C1400       C  0.18437166  0.73344329  0.08206480    -0.29300
H1401       H  0.15843093  0.78702935  0.10524446     0.14900
H1402       H  0.20151718  0.70593885  0.08807730     0.15400
C1403       C  0.29299450  0.86850239  0.05947604    -0.14200
C1404       C  0.27656818  0.83623026  0.07613353    -0.29300
H1405       H  0.31705262  0.88395762  0.07427050     0.14900
H1406       H  0.25538696  0.81928868  0.05860647     0.15400
C1407       C  0.33531963  0.01921101  0.15617623    -0.14200
C1408       C  0.35343662  0.04723766  0.13389784    -0.29300
H1409       H  0.34965677  0.98961735  0.15853294     0.14900
H1410       H  0.33944134  0.07667714  0.13014615     0.15400
C1411       C  0.27154169  0.13639353  0.17852793    -0.14200
C1412       C  0.29506809  0.10367457  0.18648910    -0.29300
H1413       H  0.24243765  0.13111658  0.16533837     0.14900
H1414       H  0.32495443  0.10694388  0.19845523     0.15400
C1415       C  0.27747329  0.95270110  0.18747173    -0.14200
C1416       C  0.24703915  0.92658590  0.19173994    -0.29300
H1417       H  0.30814266  0.94192649  0.19153430     0.14900
H1418       H  0.21665342  0.93709450  0.18562556     0.15400
C1419       C  0.19153009  0.03738411  0.35489798    -0.14200
C1420       C  0.17523348  0.00804230  0.37658306    -0.29300
H1421       H  0.18379607  0.06870201  0.36125246     0.14900
H1422       H  0.18557153  0.97714331  0.37185715     0.15400
C1423       C  0.23484073  0.11496314  0.30977312    -0.14200
C1424       C  0.26283471  0.08749740  0.32093028    -0.29300
H1425       H  0.20403720  0.10684471  0.30462834     0.14900
H1426       H  0.29366611  0.09639811  0.32467835     0.15400
C1427       C  0.18492092  0.97217962  0.29213173    -0.14200
C1428       C  0.17643167  0.93394351  0.29926894    -0.29300
H1429       H  0.15977440  0.99228720  0.28502981     0.14900
H1430       H  0.14528992  0.92581622  0.29627581     0.15400
C1431       C  0.31617362  0.41459205  0.74402978    -0.14200
C1432       C  0.32117245  0.44125970  0.77402561    -0.29300
H1433       H  0.32833323  0.42064476  0.71462033     0.14900
H1434       H  0.30987623  0.43473668  0.80376836     0.15400
C1435       C  0.19247424  0.47180848  0.69066730    -0.14200
C1436       C  0.19834366  0.43652025  0.67194366    -0.29300
H1437       H  0.17862898  0.47333235  0.72022698     0.14900
H1438       H  0.21081471  0.43530208  0.64176269     0.15400
C1439       C  0.43505928  0.23030857  0.68709093    -0.14200
C1440       C  0.40386858  0.25712113  0.68134370    -0.29300
H1441       H  0.42956105  0.20129068  0.70034987     0.14900
H1442       H  0.41049483  0.28497132  0.66629367     0.15400
C1443       C  0.41968534  0.32734226  0.80083877    -0.14200
C1444       C  0.44717656  0.31310448  0.77489359    -0.29300
H1445       H  0.42788291  0.34065242  0.82930990     0.14900
H1446       H  0.43663180  0.29915206  0.74761130     0.15400
C1447       C  0.27619443  0.13609253  0.80460410    -0.14200
C1448       C  0.30805956  0.11039713  0.80565778    -0.29300
H1449       H  0.24871241  0.12842601  0.81981001     0.14900
H1450       H  0.33628226  0.11857960  0.79210806     0.15400
C1451       C  0.21283922  0.10020374  0.68775819    -0.14200
C1452       C  0.17696783  0.09198361  0.70336875    -0.29300
H1453       H  0.23505389  0.07582302  0.68427542     0.14900
H1454       H  0.15621476  0.11640775  0.71178887     0.15400
C1455       C  0.11274282  0.21764507  0.72486163    -0.14200
C1456       C  0.08349586  0.22426887  0.69776931    -0.29300
H1457       H  0.10488458  0.20405411  0.75328585     0.14900
H1458       H  0.09011627  0.23637381  0.66841277     0.15400
C1459       C  0.08640825  0.31795869  0.82450172    -0.14200
C1460       C  0.08808275  0.33087161  0.78645095    -0.29300
H1461       H  0.11374736  0.30970042  0.84032095     0.14900
H1462       H  0.06074037  0.33445303  0.76915475     0.15400
C1463       C  0.35096327  0.18205679  0.98381371    -0.14200
C1464       C  0.37178687  0.16903575  0.01575823    -0.29300
H1465       H  0.36711801  0.18857969  0.95636533     0.14900
H1466       H  0.35625759  0.16036031  0.04276915     0.15400
C1467       C  0.28869583  0.19482605  0.05443981    -0.14200
C1468       C  0.30461355  0.23123268  0.05840032    -0.29300
H1469       H  0.27849058  0.17860789  0.08055593     0.14900
H1470       H  0.31067191  0.24899423  0.03193809     0.15400
C1471       C  0.29771974  0.18983250  0.90971441    -0.14200
C1472       C  0.30666432  0.22864877  0.90529410    -0.29300
H1473       H  0.29345462  0.17057824  0.88375412     0.14900
H1474       H  0.30625917  0.24853692  0.93135433     0.15400
C1475       C  0.15815104  0.39673877  0.96548674    -0.14200
C1476       C  0.18338473  0.37865161  0.99132329    -0.29300
H1477       H  0.15191309  0.38237823  0.93700598     0.14900
H1478       H  0.18893183  0.39397703  0.01953761     0.15400
C1479       C  0.21035803  0.32460920  0.06074625    -0.14200
C1480       C  0.20280034  0.29787646  0.08985714    -0.29300
H1481       H  0.22384391  0.35300860  0.06807590     0.14900
H1482       H  0.18809321  0.27027284  0.08180618     0.15400
C1483       C  0.20447835  0.32576012  0.90905952    -0.14200
C1484       C  0.19672850  0.29813756  0.88002798    -0.29300
H1485       H  0.21815702  0.35391607  0.90148129     0.14900
H1486       H  0.18154462  0.27115759  0.88896695     0.15400
C1487       C  0.54082822  0.34887725  0.12547733    -0.14200
C1488       C  0.51361842  0.37678190  0.11344464    -0.29300
H1489       H  0.56915449  0.34500380  0.10957558     0.14900
H1490       H  0.48627010  0.38096368  0.13073758     0.15400
C1491       C  0.60071310  0.31100589  0.18847852    -0.14200
C1492       C  0.61815296  0.30945079  0.22478175    -0.29300
H1493       H  0.61844120  0.30861153  0.16111775     0.14900
H1494       H  0.60014548  0.31445021  0.25171492     0.15400
C1495       C  0.42757538  0.33074103  0.15760632    -0.14200
C1496       C  0.45878771  0.30861212  0.14356085    -0.29300
H1497       H  0.43260852  0.35652183  0.17696453     0.14900
H1498       H  0.45316143  0.28239032  0.12502381     0.15400
C1499       C  0.57351076  0.20790053  0.29746271    -0.14200
C1500       C  0.60834572  0.20909452  0.31676176    -0.29300
H1501       H  0.57221192  0.19522722  0.26738044     0.14900
H1502       H  0.60923295  0.21995027  0.34756611     0.15400
C1503       C  0.49137069  0.17110868  0.32077491    -0.14200
C1504       C  0.51695691  0.14926321  0.34334187    -0.29300
H1505       H  0.46228745  0.15931638  0.31366720     0.14900
H1506       H  0.54559109  0.16122153  0.35157053     0.15400
C1507       C  0.41359281  0.26893481  0.27222805    -0.14200
C1508       C  0.43237638  0.23857109  0.29133348    -0.29300
H1509       H  0.42793764  0.29747902  0.26854994     0.14900
H1510       H  0.41747572  0.21030176  0.29512400     0.15400
C1511       C  0.33712513  0.53700881  0.14165570    -0.14200
C1512       C  0.36000866  0.50680368  0.12544507    -0.29300
H1513       H  0.33569776  0.56571424  0.12633624     0.14900
H1514       H  0.36308795  0.47814529  0.14037714     0.15400
C1515       C  0.30783658  0.45866735  0.18889852    -0.14200
C1516       C  0.31730097  0.42889418  0.21462050    -0.29300
H1517       H  0.29348968  0.45238549  0.16049724     0.14900
H1518       H  0.33305319  0.43668935  0.24193780     0.15400
C1519       C  0.30820479  0.60996682  0.19553697    -0.14200
C1520       C  0.31494414  0.63785169  0.22422647    -0.29300
H1521       H  0.29523673  0.61871895  0.16702283     0.14900
H1522       H  0.32957024  0.62812632  0.25168339     0.15400
C1523       C  0.21135948  0.44997710  0.29018989    -0.14200
C1524       C  0.23111444  0.45193168  0.32511361    -0.29300
H1525       H  0.20332523  0.47738403  0.27420576     0.14900
H1526       H  0.24377828  0.42486613  0.33866239     0.15400
C1527       C  0.17277758  0.51959647  0.34807400    -0.14200
C1528       C  0.15013689  0.54706683  0.36776390    -0.29300
H1529       H  0.15929614  0.49138070  0.33994386     0.14900
H1530       H  0.16253984  0.57531289  0.37718267     0.15400
C1531       C  0.22571217  0.59719674  0.33872061    -0.14200
C1532       C  0.21419637  0.60433734  0.30091127    -0.29300
H1533       H  0.23122298  0.62191550  0.35923526     0.14900
H1534       H  0.21284927  0.57926610  0.27986225     0.15400
C1535       C  0.15076590  0.38318654  0.50500923    -0.14200
C1536       C  0.16946982  0.36046641  0.47646515    -0.29300
H1537       H  0.16506542  0.38672976  0.53388306     0.14900
H1538       H  0.15521131  0.35792646  0.44741908     0.15400
C1539       C  0.22962876  0.34133864  0.40558547    -0.14200
C1540       C  0.25900405  0.34362497  0.37721524    -0.29300
H1541       H  0.20062331  0.33035436  0.39696308     0.14900
H1542       H  0.28739448  0.35614227  0.38561693     0.15400
C1543       C  0.21714275  0.32574364  0.55615156    -0.14200
C1544       C  0.24229497  0.32650810  0.58828800    -0.29300
H1545       H  0.18783651  0.31278691  0.55890382     0.14900
H1546       H  0.27010724  0.34201754  0.58413758     0.15400
C1547       C  0.32707743  0.25559525  0.41724253    -0.14200
C1548       C  0.33804412  0.22698631  0.39087800    -0.29300
H1549       H  0.31846919  0.28470144  0.40491698     0.14900
H1550       H  0.34809913  0.19756477  0.40129545     0.15400
C1551       C  0.35024420  0.19690897  0.48334125    -0.14200
C1552       C  0.34968333  0.15715541  0.48855908    -0.29300
H1553       H  0.37822592  0.21141394  0.47673278     0.14900
H1554       H  0.32149916  0.14228088  0.49279902     0.15400
C1555       C  0.30425713  0.20059595  0.57030120    -0.14200
C1556       C  0.27698266  0.19409574  0.54165738    -0.29300
H1557       H  0.33369009  0.21162698  0.56314135     0.14900
H1558       H  0.24762275  0.18351645  0.55010542     0.15400
loop_ 
_geom_bond_atom_site_label_1 
_geom_bond_atom_site_label_2 
_geom_bond_distance 
_geom_bond_site_symmetry_2 
_ccdc_geom_bond_type 
N1            C5   1.345       .  A
N1            C2   1.351       .  A
N1         C1551   1.436       .  S
C2            C3   1.377       .  A
C2         C1556   1.462       .  S
C3            C4   1.369       .  A
C3            H6   1.082       .  S
C4            C5   1.381       .  A
C4            H7   1.078       .  S
C5         C1547   1.462       .  S
N8           C12   1.380       .  A
N8            C9   1.373       .  A
N8         C1536   1.456       .  S
C9           C10   1.383       .  A
C9         C1539   1.514       .  S
C10          C11   1.368       .  A
C10          H13   1.080       .  S
C11          C12   1.389       .  A
C11          H14   1.081       .  S
C12        C1543   1.526       .  S
N15          C19   1.357       .  A
N15          C16   1.348       .  A
N15        C1527   1.446       .  S
C16          C17   1.379       .  A
C16        C1524   1.469       .  S
C17          C18   1.380       .  A
C17          H20   1.082       .  S
C18          C19   1.383       .  A
C18          H21   1.082       .  S
C19        C1531   1.475       .  S
N22          C26   1.366       .  A
N22          C23   1.367       .  A
N22        C1511   1.452       .  S
C23          C24   1.383       .  A
C23        C1515   1.491       .  S
C24          C25   1.364       .  A
C24          H27   1.080       .  S
C25          C26   1.383       .  A
C25          H28   1.081       .  S
C26        C1519   1.494       .  S
N29          C33   1.351       .  A
N29          C30   1.353       .  A
N29        C1503   1.447       .  S
C30          C31   1.379       .  A
C30        C1499   1.468       .  S
C31          C32   1.373       .  A
C31          H34   1.082       .  S
C32          C33   1.390       .  A
C32          H35   1.081       .  S
C33        C1508   1.484       .  S
N36          C40   1.359       .  A
N36          C37   1.362       .  A
N36        C1487   1.451       .  S
C37          C38   1.376       .  A
C37        C1496   1.466       .  S
C38          C39   1.361       .  A
C38          H41   1.081       .  S
C39          C40   1.382       .  A
C39          H42   1.078       .  S
C40        C1491   1.472       .  S
N43          C47   1.364   1_556  A
N43          C44   1.376       .  A
N43        C1476   1.453       .  S
C44          C45   1.388       .  A
C44        C1483   1.507       .  S
C45          C46   1.365   1_556  A
C45          H48   1.081       .  S
C46          C47   1.379       .  A
C46          H49   1.080       .  S
C47        C1479   1.494       .  S
N50          C54   1.355   1_556  A
N50          C51   1.349       .  A
N50        C1463   1.450       .  S
C51          C52   1.382       .  A
C51        C1471   1.468       .  S
C52          C53   1.379   1_556  A
C52          H55   1.082       .  S
C53          C54   1.381       .  A
C53          H56   1.082       .  S
C54        C1467   1.472       .  S
O57          C84   1.271       .  A
O57         Mn83   2.099       .  S
C58        C1555   1.464       .  S
C58          O91   1.267       .  A
C58          O88   1.272       .  A
O59         Mn66   2.136       .  S
O59         Mn77   2.158       .  S
O59         Mn81   2.134       .  S
O59         Mn83   2.169       .  S
O60          C70   1.275       .  A
O60         Mn94   2.109       .  S
O61          C84   1.268       .  A
O61         Mn77   2.077       .  S
O62          C89   1.254       .  A
O62         Mn81   2.087       .  S
O63         Mn94   1.966       .  S
O63         Mn83   1.970       .  S
O63          C79   1.225       .  S
C64        C1447   1.472       .  S
C64          O67   1.250       .  A
C64          O90   1.228       .  S
O65         Mn85   2.148       .  S
O65         Mn66   2.141       .  S
O65         Mn99   2.174       .  S
O65         Mn81   2.137       .  S
Mn66         O95   2.097       .  S
Mn66         O71   2.046       .  S
Mn66         O98   2.067       .  S
Mn66         O72   2.122       .  S
O67         Mn81   2.059       .  S
O68          C70   1.270       .  A
O68         Mn75   2.086       .  S
C69        C1440   1.510       .  S
C69          O95   1.255       .  A
C69          O82   1.230       .  S
C70        C1451   1.472       .  S
O71          C96   1.249       .  A
O72         Mn75   2.163       .  S
O72         Mn94   2.156       .  S
O72         Mn81   2.142       .  S
O73         Mn77   1.998       .  S
O73         Mn99   1.987       .  S
O73          C96   1.232       .  S
C74        C1472   1.466       .  S
C74         O100   1.270       .  A
C74          O76   1.271       .  A
Mn75         O88   2.101       .  S
Mn75         O90   1.986       .  S
Mn75         O82   2.000       .  S
O76         Mn99   2.092       .  S
Mn77         O93   2.086       .  S
Mn77         O87   1.979       .  S
O78          C80   1.268       .  A
O78         Mn83   2.080       .  S
C79        C1455   1.476       .  S
C79          O97   1.250       .  A
C80        C1436   1.462       .  S
C80          O93   1.272       .  A
Mn81         O97   2.066       .  S
O82         Mn85   1.995       .  S
Mn83        O101   2.007       .  S
C84        C1460   1.467       .  S
Mn85         O92   2.063       .  S
Mn85        O100   2.085       .  S
Mn85         O90   1.966       .  S
C86        C1443   1.454       .  S
C86          O92   1.271       .  A
C86         O102   1.262       .  A
O87         Mn99   1.965       .  S
O87          C89   1.226       .  S
C89        C1484   1.494       .  S
O91         Mn94   2.047       .  S
Mn94        O101   2.022       .  S
C96        C1431   1.475       .  S
O98         C103   1.254       .  A
Mn99        O102   2.065       .  S
O101        C103   1.238       .  S
C103       C1544   1.509       .  S
N104        C108   1.347       .  A
N104        C105   1.348   1_545  A
N104       C1419   1.446       .  S
C105        C106   1.380       .  A
C105       C1427   1.473       .  S
C106        C107   1.376   1_565  A
C106        H109   1.074       .  S
C107        C108   1.381       .  A
C107        H110   1.083       .  S
C108       C1424   1.462       .  S
N111        C115   1.373       .  A
N111        C112   1.374   1_545  A
N111       C1407   1.455       .  S
C112        C113   1.386   1_565  A
C112       C1415   1.511       .  S
C113        C114   1.368       .  A
C113        H116   1.081       .  S
C114        C115   1.383       .  A
C114        H117   1.083       .  S
C115       C1412   1.506       .  S
O118        C145   1.268       .  A
O118       Mn144   2.073       .  S
C119       C1532   1.471       .  S
C119        O152   1.270       .  A
C119        O149   1.273       .  A
O120       Mn127   2.144       .  S
O120       Mn138   2.162       .  S
O120       Mn142   2.137       .  S
O120       Mn144   2.156       .  S
O121        C131   1.267       .  A
O121       Mn155   2.076       .  S
O122        C145   1.275       .  A
O122       Mn138   2.114       .  S
O123        C150   1.258       .  A
O123       Mn142   2.112       .  S
O124       Mn155   1.974       .  S
O124       Mn144   1.978       .  S
O124        C140   1.228       .  S
C125       C1392   1.485       .  S
C125        O128   1.252       .  A
C125        O151   1.230       .  S
O126       Mn146   2.159       .  S
O126       Mn127   2.128       .  S
O126       Mn160   2.163       .  S
O126       Mn142   2.129       .  S
Mn127       O156   2.095       .  S
Mn127       O132   2.062       .  S
Mn127       O159   2.079       .  S
Mn127       O133   2.147       .  S
O128       Mn142   2.067       .  S
O129        C131   1.269       .  A
O129       Mn136   2.078       .  S
C130       C1383   1.485       .  S
C130        O156   1.254       .  A
C130        O143   1.222       .  S
C131       C1395   1.454       .  S
O132        C157   1.253       .  A
O133       Mn136   2.152       .  S
O133       Mn155   2.158       .  S
O133       Mn142   2.162       .  S
O134       Mn138   2.023       .  S
O134       Mn160   2.017       .  S
O134        C157   1.237       .  S
C135       C1428   1.467       .  S
C135        O161   1.264       .  A
C135        O137   1.272       .  A
Mn136       O149   2.101       .  S
Mn136       O151   1.987       .  S
Mn136       O143   1.964       .  S
O137       Mn160   2.102       .  S
Mn138       O154   2.046       .  S
Mn138       O148   1.954       .  S
O139        C141   1.267       .  A
O139       Mn144   2.083       .  S
C140       C1399   1.480       .  S
C140        O158   1.251       .  A
C141       C1379   1.454       .  S
C141        O154   1.267       .  A
Mn142       O158   2.070       .  S
O143       Mn146   1.971       .  S
Mn144       O162   1.977       .  S
C145       C1404   1.470       .  S
Mn146       O153   2.092       .  S
Mn146       O161   2.056       .  S
Mn146       O151   1.992       .  S
C147       C1387   1.464       .  S
C147        O153   1.272       .  A
C147        O163   1.268       .  A
O148       Mn160   1.971       .  S
O148        C150   1.224       .  S
C150       C1416   1.497       .  S
O152       Mn155   2.089       .  S
Mn155       O162   1.973       .  S
C157       C1376   1.504       .  S
O159        C164   1.252       .  A
Mn160       O163   2.083       .  S
O162        C164   1.226       .  S
C164       C1520   1.483       .  S
N165        C169   1.355       .  A
N165        C166   1.362       .  A
N165       C1363   1.450       .  S
C166        C167   1.380       .  A
C166       C1371   1.469   1_455  S
C167        C168   1.364       .  A
C167        H170   1.083   1_455  S
C168        C169   1.381       .  A
C168        H171   1.080       .  S
C169       C1367   1.469       .  S
N172        C176   1.356   1_655  A
N172        C173   1.349       .  A
N172       C1352   1.446       .  S
C173        C174   1.386       .  A
C173       C1359   1.472       .  S
C174        C175   1.366   1_655  A
C174        H177   1.082       .  S
C175        C176   1.385       .  A
C175        H178   1.082       .  S
C176       C1355   1.479       .  S
O179        C206   1.270       .  A
O179       Mn205   2.095       .  S
C180       C1500   1.467       .  S
C180        O213   1.268       .  A
C180        O210   1.273       .  A
O181       Mn188   2.133       .  S
O181       Mn199   2.152       .  S
O181       Mn203   2.127       .  S
O181       Mn205   2.164       .  S
O182        C192   1.263       .  A
O182       Mn216   2.052       .  S
O183        C206   1.269       .  A
O183       Mn199   2.077       .  S
O184        C211   1.243       .  A
O184       Mn203   2.038       .  S
O185       Mn216   1.979       .  S
O185       Mn205   1.986       .  S
O185        C201   1.229       .  S
C186       C1348   1.480       .  S
C186        O189   1.246       .  A
C186        O212   1.226       .  S
O187       Mn207   2.140       .  S
O187       Mn188   2.156       .  S
O187       Mn221   2.160       .  S
O187       Mn203   2.148       .  S
Mn188       O217   2.080       .  S
Mn188       O193   2.055       .  S
Mn188       O220   2.079       .  S
Mn188       O194   2.132       .  S
O189       Mn203   2.063       .  S
O190        C192   1.271       .  A
O190       Mn197   2.094       .  S
C191       C1492   1.463       .  S
C191        O217   1.249       .  A
C191        O204   1.220       .  S
C192       C1336   1.450       .  S
O193        C218   1.249       .  A
O194       Mn197   2.149       .  S
O194       Mn216   2.156       .  S
O194       Mn203   2.125       .  S
O195       Mn199   1.976       .  S
O195       Mn221   1.997       .  S
O195        C218   1.229       .  S
C196       C1343   1.472       .  S
C196        O222   1.268       .  A
C196        O198   1.272       .  A
Mn197       O210   2.086       .  S
Mn197       O212   1.999       .  S
Mn197       O204   1.967       .  S
O198       Mn221   2.108       .  S
Mn199       O215   2.079       .  S
Mn199       O209   1.980       .  S
O200        C202   1.270       .  A
O200       Mn205   2.071       .  S
C201       C1340   1.480       .  S
C201        O219   1.248       .  A
C202       C1327   1.457       .  S
C202        O215   1.267       .  A
Mn203       O219   2.058       .  S
O204       Mn207   1.937       .  S
Mn205       O223   2.000       .  S
C206       C1372   1.458       .  S
Mn207       O214   2.094       .  S
Mn207       O222   2.076       .  S
Mn207       O212   1.991       .  S
C208       C1320   1.471       .  S
C208        O214   1.269       .  A
C208        O224   1.272       .  A
O209       Mn221   1.966       .  S
O209        C211   1.226       .  S
C211       C1360   1.459       .  S
O213       Mn216   2.083       .  S
Mn216       O223   1.969       .  S
C218       C1324   1.476       .  S
O220        C225   1.254       .  A
Mn221       O224   2.093       .  S
O223        C225   1.230       .  S
C225       C1331   1.496       .  S
N226        C230   1.360       .  A
N226        C227   1.358   1_554  A
N226       C1311   1.443       .  S
C227        C228   1.378       .  A
C227       C1315   1.485       .  S
C228        C229   1.377   1_556  A
C228        H231   1.082       .  S
C229        C230   1.390       .  A
C229        H232   1.081       .  S
C230       C1347   1.495       .  S
N233        C237   1.362       .  A
N233        C234   1.357   1_556  A
N233       C1303   1.447       .  S
C234        C235   1.379       .  A
C234       C1344   1.480       .  S
C235        C236   1.368   1_554  A
C235        H238   1.083       .  S
C236        C237   1.392       .  A
C236        H239   1.081       .  S
C237       C1307   1.495       .  S
N240        C244   1.368       .  A
N240        C241   1.361   1_455  A
N240       C1295   1.450       .  S
C241        C242   1.381       .  A
C241       C1299   1.484       .  S
C242        C243   1.364   1_655  A
C242        H245   1.081       .  S
C243        C244   1.386       .  A
C243        H246   1.082       .  S
C244       C1456   1.490       .  S
N247        C251   1.352   1_455  A
N247        C248   1.355       .  A
N247       C1287   1.450       .  S
C248        C249   1.381       .  A
C248       C1459   1.472       .  S
C249        C250   1.378   1_455  A
C249        H252   1.082       .  S
C250        C251   1.381       .  A
C250        H253   1.082       .  S
C251       C1292   1.470       .  S
O254        C281   1.269       .  A
O254       Mn280   2.084       .  S
C255       C1263   1.452       .  S
C255        O288   1.265       .  A
C255        O285   1.270       .  A
O256       Mn263   2.148       .  S
O256       Mn274   2.158       .  S
O256       Mn278   2.154       .  S
O256       Mn280   2.152       .  S
O257        C267   1.270       .  A
O257       Mn291   2.084       .  S
O258        C281   1.270       .  A
O258       Mn274   2.092       .  S
O259        C286   1.248       .  A
O259       Mn278   2.070       .  S
O260       Mn291   1.985       .  S
O260       Mn280   1.969       .  S
O260        C276   1.229       .  S
C261       C1283   1.479       .  S
C261        O264   1.251       .  A
C261        O287   1.225       .  S
O262       Mn282   2.159       .  S
O262       Mn263   2.133       .  S
O262       Mn296   2.149       .  S
O262       Mn278   2.137       .  S
Mn263       O292   2.076       .  S
Mn263       O268   2.060       .  S
Mn263       O295   2.067       .  S
Mn263       O269   2.131       .  S
O264       Mn278   2.073       .  S
O265        C267   1.278       .  A
O265       Mn272   2.128       .  S
C266       C1267   1.496       .  S
C266        O292   1.253       .  A
C266        O279   1.231       .  S
C267       C1316   1.478       .  S
O268        C293   1.250       .  A
O269       Mn272   2.151       .  S
O269       Mn291   2.165       .  S
O269       Mn278   2.130       .  S
O270       Mn274   1.980       .  S
O270       Mn296   1.997       .  S
O270        C293   1.227       .  S
C271       C1279   1.469       .  S
C271        O297   1.273       .  A
C271        O273   1.270       .  A
Mn272       O285   2.059       .  S
Mn272       O287   1.966       .  S
Mn272       O279   2.017       .  S
O273       Mn296   2.082       .  S
Mn274       O290   2.077       .  S
Mn274       O284   1.955       .  S
O275        C277   1.269       .  A
O275       Mn280   2.075       .  S
C276       C1308   1.476       .  S
C276        O294   1.249       .  A
C277       C1256   1.452       .  S
C277        O290   1.267       .  A
Mn278       O294   2.055       .  S
O279       Mn282   2.001       .  S
Mn280       O298   1.977       .  S
C281       C1291   1.468       .  S
Mn282       O289   2.129       .  S
Mn282       O297   2.102       .  S
Mn282       O287   1.993       .  S
C283       C1271   1.481       .  S
C283        O289   1.278       .  A
C283        O299   1.270       .  A
O284       Mn296   1.968       .  S
O284        C286   1.223       .  S
C286       C1300   1.473       .  S
O288       Mn291   2.076       .  S
Mn291       O298   1.985       .  S
C293       C1275   1.473       .  S
O295        C300   1.250       .  A
Mn296       O299   2.085       .  S
O298        C300   1.229       .  S
C300       C1259   1.486       .  S
N301        C305   1.362       .  A
N301        C302   1.350   1_554  A
N301       C1247   1.443       .  S
C302        C303   1.373       .  A
C302       C1251   1.466       .  S
C303        C304   1.370   1_556  A
C303        H306   1.077       .  S
C304        C305   1.390       .  A
C304        H307   1.081       .  S
C305       C1400   1.492       .  S
N308        C312   1.358       .  A
N308        C309   1.354   1_556  A
N308       C1240   1.441       .  S
C309        C310   1.382       .  A
C309       C1403   1.483       .  S
C310        C311   1.373   1_554  A
C310        H313   1.082       .  S
C311        C312   1.386       .  A
C311        H314   1.082       .  S
C312       C1243   1.492       .  S
N315        C319   1.360       .  A
N315        C316   1.355   1_545  A
N315       C1232   1.447       .  S
C316        C317   1.391   1_565  A
C316       C1235   1.492       .  S
C317        C318   1.374       .  A
C317        H320   1.079   1_545  S
C318        C319   1.376       .  A
C318        H321   1.082       .  S
C319       C1452   1.478       .  S
N322        C326   1.359       .  A
N322        C323   1.353       .  A
N322       C1223   1.444       .  S
C323        C324   1.377       .  A
C323       C1227   1.474   1_545  S
C324        C325   1.370       .  A
C324        H327   1.082   1_545  S
C325        C326   1.392       .  A
C325        H328   1.080       .  S
C326       C1448   1.490       .  S
O329        C356   1.269       .  A
O329       Mn355   2.079       .  S
C330       C1252   1.476       .  S
C330        O363   1.273       .  A
C330        O360   1.270       .  A
O331       Mn338   2.160       .  S
O331       Mn349   2.158       .  S
O331       Mn353   2.131       .  S
O331       Mn355   2.152       .  S
O332        C342   1.274       .  A
O332       Mn366   2.103       .  S
O333        C356   1.274       .  A
O333       Mn349   2.111       .  S
O334        C361   1.243       .  A
O334       Mn353   2.044       .  S
O335       Mn366   1.997       .  S
O335       Mn355   2.002       .  S
O335        C351   1.231       .  S
C336       C1191   1.461       .  S
C336        O339   1.244       .  A
C336        O362   1.223       .  S
O337       Mn357   2.145       .  S
O337       Mn338   2.148       .  S
O337       Mn371   2.144       .  S
O337       Mn353   2.139       .  S
Mn338       O367   2.118       .  S
Mn338       O343   2.050       .  S
Mn338       O370   2.060       .  S
Mn338       O344   2.134       .  S
O339       Mn353   2.051       .  S
O340        C342   1.269       .  A
O340       Mn347   2.082       .  S
C341       C1215   1.487       .  S
C341        O367   1.255       .  A
C341        O354   1.219       .  S
C342       C1195   1.468       .  S
O343        C368   1.248       .  A
O344       Mn347   2.146       .  S
O344       Mn366   2.152       .  S
O344       Mn353   2.130       .  S
O345       Mn349   1.989       .  S
O345       Mn371   1.982       .  S
O345        C368   1.231       .  S
C346       C1212   1.483       .  S
C346        O372   1.272       .  A
C346        O348   1.274       .  A
Mn347       O360   2.092       .  S
Mn347       O362   1.986       .  S
Mn347       O354   1.957       .  S
O348       Mn371   2.105       .  S
Mn349       O365   2.087       .  S
Mn349       O359   1.979       .  S
O350        C352   1.268       .  A
O350       Mn355   2.090       .  S
C351       C1200   1.479       .  S
C351        O369   1.244       .  A
C352       C1228   1.466       .  S
C352        O365   1.271       .  A
Mn353       O369   2.040       .  S
O354       Mn357   1.965       .  S
Mn355       O373   1.963       .  S
C356       C1204   1.473       .  S
Mn357       O364   2.093       .  S
Mn357       O372   2.100       .  S
Mn357       O362   1.980       .  S
C358       C1220   1.468       .  S
C358        O364   1.272       .  A
C358        O374   1.269       .  A
O359       Mn371   1.979       .  S
O359        C361   1.225       .  S
C361       C1207   1.465       .  S
O363       Mn366   2.083       .  S
Mn366       O373   1.989       .  S
C368       C1236   1.470       .  S
O370        C375   1.249       .  A
Mn371       O374   2.084       .  S
O373        C375   1.229       .  S
C375       C1244   1.472       .  S
N376        C380   1.349       .  A
N376        C377   1.356   1_455  A
N376       C1184   1.447       .  S
C377        C378   1.382       .  A
C377       C1187   1.468       .  S
C378        C379   1.373   1_655  A
C378        H381   1.083       .  S
C379        C380   1.379       .  A
C379        H382   1.083       .  S
C380       C1396   1.462       .  S
N383        C387   1.378   1_655  A
N383        C384   1.372       .  A
N383       C1175   1.463       .  S
C384        C385   1.382       .  A
C384       C1179   1.491       .  S
C385        C386   1.357   1_655  A
C385        H388   1.083       .  S
C386        C387   1.384       .  A
C386        H389   1.083       .  S
C387       C1391   1.497       .  S
N390        C394   1.352   1_545  A
N390        C391   1.362       .  A
N390       C1167   1.440       .  S
C391        C392   1.388       .  A
C391       C1339   1.494       .  S
C392        C393   1.372   1_545  A
C392        H395   1.082       .  S
C393        C394   1.382       .  A
C393        H396   1.083       .  S
C394       C1171   1.481       .  S
N397        C401   1.348   1_565  A
N397        C398   1.359       .  A
N397       C1160   1.442   1_565  S
C398        C399   1.380       .  A
C398       C1163   1.475       .  S
C399        C400   1.364   1_565  A
C399        H402   1.077       .  S
C400        C401   1.382       .  A
C400        H403   1.083       .  S
C401       C1335   1.469       .  S
O404        C431   1.266       .  A
O404       Mn430   2.080       .  S
C405       C1188   1.461       .  S
C405        O438   1.269       .  A
C405        O435   1.269       .  A
O406       Mn413   2.156       .  S
O406       Mn424   2.132       .  S
O406       Mn428   2.156       .  S
O406       Mn430   2.148       .  S
O407        C417   1.268       .  A
O407       Mn441   2.076       .  S
O408        C431   1.265       .  A
O408       Mn424   2.053       .  S
O409        C436   1.256       .  A
O409       Mn428   2.122       .  S
O410       Mn441   1.979       .  S
O410       Mn430   1.960       .  S
O410        C426   1.227       .  S
C411       C1147   1.488       .  S
C411        O414   1.255       .  A
C411        O437   1.224       .  S
O412       Mn432   2.149       .  S
O412       Mn413   2.133       .  S
O412       Mn446   2.134       .  S
O412       Mn428   2.142       .  S
Mn413       O442   2.088       .  S
Mn413       O418   2.120       .  S
Mn413       O445   2.072       .  S
Mn413       O419   2.160       .  S
O414       Mn428   2.096       .  S
O415        C417   1.278       .  A
O415       Mn422   2.122       .  S
C416       C1180   1.480       .  S
C416        O442   1.255       .  A
C416        O429   1.224       .  S
C417       C1127   1.471       .  S
O418        C443   1.257       .  A
O419       Mn422   2.145       .  S
O419       Mn441   2.152       .  S
O419       Mn428   2.151       .  S
O420       Mn424   1.937       .  S
O420       Mn446   1.960       .  S
O420        C443   1.216       .  S
C421       C1143   1.445       .  S
C421        O447   1.266       .  A
C421        O423   1.265       .  A
Mn422       O435   2.083       .  S
Mn422       O437   1.978       .  S
Mn422       O429   1.987       .  S
O423       Mn446   2.071       .  S
Mn424       O440   2.084       .  S
Mn424       O434   1.960       .  S
O425        C427   1.270       .  A
O425       Mn430   2.085       .  S
C426       C1131   1.470       .  S
C426        O444   1.252       .  A
C427       C1151   1.465       .  S
C427        O440   1.268       .  A
Mn428       O444   2.068       .  S
O429       Mn432   1.972       .  S
Mn430       O448   1.970       .  S
C431       C1135   1.444       .  S
Mn432       O439   2.117       .  S
Mn432       O447   2.064       .  S
Mn432       O437   1.980       .  S
C433       C1172   1.466       .  S
C433        O439   1.275       .  A
C433        O449   1.265       .  A
O434       Mn446   1.960       .  S
O434        C436   1.217       .  S
C436       C1139   1.495       .  S
O438       Mn441   2.086       .  S
Mn441       O448   1.976       .  S
C443       C1164   1.480       .  S
O445        C450   1.249       .  A
Mn446       O449   2.057       .  S
O448        C450   1.224       .  S
C450       C1155   1.480       .  S
N451        C455   1.348   1_554  A
N451        C452   1.359       .  A
N451       C1120   1.447   1_554  S
C452        C453   1.385       .  A
C452       C1152   1.468       .  S
C453        C454   1.368   1_554  A
C453        H456   1.083       .  S
C454        C455   1.376       .  A
C454        H457   1.082       .  S
C455       C1123   1.460       .  S
N458        C462   1.368       .  A
N458        C459   1.374   1_554  A
N458       C1111   1.458       .  S
C459        C460   1.386       .  A
C459       C1115   1.494       .  S
C460        C461   1.359   1_556  A
C460        H463   1.083       .  S
C461        C462   1.381       .  A
C461        H464   1.082       .  S
C462       C1156   1.491       .  S
N465        C469   1.349   1_545  A
N465        C466   1.355       .  A
N465       C1104   1.447       .  S
C466        C467   1.381       .  A
C466       C1280   1.474       .  S
C467        C468   1.378       .  A
C467        H470   1.082       .  S
C468        C469   1.381   1_545  A
C468        H471   1.082   1_545  S
C469       C1107   1.467       .  S
N472        C476   1.371       .  A
N472        C473   1.363   1_545  A
N472       C1095   1.453       .  S
C473        C474   1.380       .  A
C473       C1100   1.487       .  S
C474        C475   1.360   1_565  A
C474        H477   1.081       .  S
C475        C476   1.386       .  A
C475        H478   1.080       .  S
C476       C1284   1.494       .  S
N479        C483   1.361       .  A
N479        C480   1.358   1_655  A
N479       C1087   1.458       .  S
C480        C481   1.374       .  A
C480       C1219   1.473       .  S
C481        C482   1.369   1_455  A
C481        H484   1.082       .  S
C482        C483   1.389       .  A
C482        H485   1.076       .  S
C483       C1091   1.494       .  S
N486        C490   1.360       .  A
N486        C487   1.358   1_455  A
N486       C1079   1.452       .  S
C487        C488   1.377       .  A
C487       C1083   1.482       .  S
C488        C489   1.378   1_655  A
C488        H491   1.081       .  S
C489        C490   1.383       .  A
C489        H492   1.082       .  S
C490       C1216   1.489       .  S
N493        N494   1.333       .  A
N493        N499   1.319   1_655  A
N493       Mn522   2.262       .  S
N494        C501   1.364   1_655  A
N495        N497   1.317   1_455  A
N495        N496   1.317       .  A
N495       Mn511   2.211       .  S
N496        C502   1.352       .  A
N497        N498   1.328       .  A
N497       Mn522   2.224       .  S
N498        C502   1.357   1_655  A
N499        N500   1.320       .  A
N499       Mn511   2.218       .  S
N500        C501   1.351       .  A
C501       C1176   1.498       .  S
C502       C1088   1.478       .  S
N503        N509   1.316       .  A
N503        N504   1.315       .  A
N503       Mn533   2.184       .  S
N504        C512   1.346       .  A
N505        N506   1.316       .  A
N505        N507   1.316   1_565  A
N505       Mn511   2.202       .  S
N506        C513   1.349   1_565  A
N507        N508   1.323       .  A
N507       Mn533   2.189       .  S
N508        C513   1.352       .  A
N509        N510   1.327   1_545  A
N509       Mn511   2.234   1_545  S
N510        C512   1.361   1_565  A
Mn511      Cl535   2.534   1_565  S
C512       C1231   1.469       .  S
C513       C1420   1.462       .  S
N514        N515   1.326       .  A
N514        N520   1.318       .  A
N514       Mn522   2.233   1_545  S
N515        C523   1.359       .  A
N516        N518   1.318       .  A
N516        N517   1.315       .  A
N516       Mn534   2.179       .  S
N517        C524   1.344       .  A
N518        N519   1.325       .  A
N518       Mn522   2.232   1_545  S
N519        C524   1.360       .  A
N520        N521   1.315       .  A
N520       Mn534   2.184       .  S
N521        C523   1.346       .  A
Mn522      Cl535   2.582   1_665  S
C523       C1103   1.469       .  S
C524       C1168   1.468       .  S
N525        N526   1.326       .  A
N525        N531   1.314       .  A
N525       Mn533   2.214       .  S
N526        C536   1.358       .  A
N527        N528   1.325   1_455  A
N527        N529   1.314       .  A
N527       Mn534   2.218   1_455  S
N528        C537   1.358   1_655  A
N529        N530   1.320       .  A
N529       Mn533   2.200       .  S
N530        C537   1.350       .  A
N531        N532   1.316   1_455  A
N531       Mn534   2.193   1_455  S
N532        C536   1.349   1_655  A
Mn533      Cl535   2.567       .  S
Mn534      Cl535   2.536   1_655  S
C536       C1364   1.472       .  S
C537       C1296   1.482       .  S
N538        N539   1.328       .  A
N538        N544   1.318   1_655  A
N538       Mn567   2.239       .  S
N539        C546   1.359   1_655  A
N540        N542   1.316   1_455  A
N540        N541   1.323       .  A
N540       Mn556   2.230       .  S
N541        C547   1.358   1_455  A
N542        N543   1.317       .  A
N542       Mn567   2.183       .  S
N543        C547   1.349       .  A
N544        N545   1.314       .  A
N544       Mn556   2.173       .  S
N545        C546   1.343       .  A
C546       C1351   1.468       .  S
C547       C1183   1.470       .  S
N548        N554   1.315   1_556  A
N548        N549   1.327       .  A
N548       Mn578   2.241       .  S
N549        C557   1.362   1_556  A
N550        N551   1.330       .  A
N550        N552   1.316   1_554  A
N550       Mn556   2.259       .  S
N551        C558   1.365   1_554  A
N552        N553   1.319       .  A
N552       Mn578   2.185       .  S
N553        C558   1.346       .  A
N554        N555   1.317       .  A
N554       Mn556   2.172       .  S
N555        C557   1.344       .  A
Mn556      Cl580   2.540   1_554  S
C557       C1248   1.474       .  S
C558       C1475   1.488       .  S
N559        N560   1.328   1_556  A
N559        N565   1.317       .  A
N559       Mn567   2.239   1_556  S
N560        C568   1.360   1_554  A
N561        N563   1.316       .  A
N561        N562   1.325       .  A
N561       Mn579   2.235       .  S
N562        C569   1.358       .  A
N563        N564   1.320       .  A
N563       Mn567   2.199   1_556  S
N564        C569   1.353       .  A
N565        N566   1.323       .  A
N565       Mn579   2.219       .  S
N566        C568   1.354       .  A
Mn567      Cl580   2.570   1_654  S
C568       C1112   1.495       .  S
C569       C1304   1.485       .  S
N570        N571   1.319       .  A
N570        N576   1.316       .  A
N570       Mn578   2.213       .  S
N571        C581   1.352       .  A
N572        N573   1.317       .  A
N572        N574   1.317   1_655  A
N572       Mn579   2.222       .  S
N573        C582   1.353   1_655  A
N574        N575   1.324       .  A
N574       Mn578   2.192       .  S
N575        C582   1.353       .  A
N576        N577   1.323   1_455  A
N576       Mn579   2.207   1_455  S
N577        C581   1.355   1_655  A
Mn578      Cl580   2.569       .  S
Mn579      Cl580   2.543   1_655  S
C581       C1288   1.475       .  S
C582       C1080   1.467       .  S
N583        N584   1.324       .  A
N583        N589   1.316   1_556  A
N583       Mn612   2.215       .  S
N584        C591   1.357   1_556  A
N585        N587   1.316       .  A
N585        N586   1.323       .  A
N585       Mn601   2.210       .  S
N586        C592   1.355       .  A
N587        N588   1.319   1_554  A
N587       Mn612   2.202   1_554  S
N588        C592   1.352   1_556  A
N589        N590   1.316       .  A
N589       Mn601   2.194       .  S
N590        C591   1.348       .  A
C591       C1464   1.471       .  S
C592       C1312   1.475       .  S
N593        N599   1.314   1_565  A
N593        N594   1.316       .  A
N593       Mn623   2.175       .  S
N594        C602   1.343   1_565  A
N595        N596   1.321       .  A
N595        N597   1.316       .  A
N595       Mn601   2.226       .  S
N596        C603   1.352       .  A
N597        N598   1.326       .  A
N597       Mn623   2.208   1_545  S
N598        C603   1.357       .  A
N599        N600   1.328       .  A
N599       Mn601   2.235       .  S
N600        C602   1.363       .  A
Mn601      Cl625   2.550       .  S
C602       C1159   1.476   1_545  S
C603       C1408   1.483       .  S
N604        N605   1.323       .  A
N604        N610   1.318       .  A
N604       Mn612   2.220       .  S
N605        C613   1.352       .  A
N606        N608   1.317       .  A
N606        N607   1.321       .  A
N606       Mn624   2.216   1_545  S
N607        C614   1.356       .  A
N608        N609   1.323       .  A
N608       Mn612   2.213       .  S
N609        C614   1.354       .  A
N610        N611   1.327       .  A
N610       Mn624   2.235   1_545  S
N611        C613   1.359       .  A
Mn612      Cl625   2.544   1_556  S
C613       C1096   1.491       .  S
C614       C1224   1.481       .  S
N615        N616   1.320       .  A
N615        N621   1.317   1_554  A
N615       Mn623   2.198       .  S
N616        C626   1.353   1_554  A
N617        N618   1.328       .  A
N617        N619   1.316   1_556  A
N617       Mn624   2.242       .  S
N618        C627   1.364   1_556  A
N619        N620   1.312       .  A
N619       Mn623   2.160       .  S
N620        C627   1.338       .  A
N621        N622   1.323       .  A
N621       Mn624   2.219       .  S
N622        C626   1.353       .  A
Mn623      Cl625   2.547   1_565  S
Mn624      Cl625   2.564   1_566  S
C626       C1239   1.477       .  S
C627       C1119   1.466       .  S
O628        C655   1.266       .  A
O628       Mn654   2.055       .  S
C629       C1124   1.451       .  S
C629        O662   1.264       .  A
C629        O659   1.268       .  A
O630       Mn637   2.126       .  S
O630       Mn648   2.154       .  S
O630       Mn652   2.135       .  S
O630       Mn654   2.138       .  S
O631        C641   1.277       .  A
O631       Mn665   2.110       .  S
O632        C655   1.269       .  A
O632       Mn648   2.092       .  S
O633        C660   1.246       .  A
O633       Mn652   2.045       .  S
O634       Mn665   1.980       .  S
O634       Mn654   1.996       .  S
O634        C650   1.225       .  S
C635       C1063   1.483       .  S
C635        O638   1.254       .  A
C635        O661   1.228       .  S
O636       Mn656   2.159       .  S
O636       Mn637   2.151       .  S
O636       Mn670   2.148       .  S
O636       Mn652   2.151       .  S
Mn637       O666   2.059       .  S
Mn637       O642   2.087       .  S
Mn637       O669   2.077       .  S
Mn637       O643   2.143       .  S
O638       Mn652   2.075       .  S
O639        C641   1.270       .  A
O639       Mn646   2.079       .  S
C640       C1099   1.476       .  S
C640        O666   1.247       .  A
C640        O653   1.226       .  S
C641       C1067   1.465       .  S
O642        C667   1.254       .  A
O643       Mn646   2.152       .  S
O643       Mn665   2.146       .  S
O643       Mn652   2.114       .  S
O644       Mn648   1.958       .  S
O644       Mn670   1.939       .  S
O644        C667   1.223       .  S
C645       C1076   1.461       .  S
C645        O671   1.268       .  A
C645        O647   1.269       .  A
Mn646       O659   2.086       .  S
Mn646       O661   1.991       .  S
Mn646       O653   1.977       .  S
O647       Mn670   2.063       .  S
Mn648       O664   2.106       .  S
Mn648       O658   2.015       .  S
O649        C651   1.274       .  A
O649       Mn654   2.102       .  S
C650       C1056   1.489       .  S
C650        O668   1.255       .  A
C651       C1084   1.481       .  S
C651        O664   1.275       .  A
Mn652       O668   2.088       .  S
O653       Mn656   1.977       .  S
Mn654       O672   1.964       .  S
C655       C1059   1.460       .  S
Mn656       O663   2.094       .  S
Mn656       O671   2.089       .  S
Mn656       O661   1.978       .  S
C657       C1108   1.467       .  S
C657        O663   1.271       .  A
C657        O673   1.269       .  A
O658       Mn670   1.997       .  S
O658        C660   1.231       .  S
C660       C1071   1.480       .  S
O662       Mn665   2.046       .  S
Mn665       O672   1.979       .  S
C667       C1092   1.477       .  S
O669        C674   1.252       .  A
Mn670       O673   2.082       .  S
O672        C674   1.224       .  S
C674       C1116   1.478       .  S
N675        C679   1.357       .  A
N675        C676   1.351       .  A
N675       C1051   1.447       .  S
C676        C677   1.387       .  A
C676       C1208   1.478       .  S
C677        C678   1.370       .  A
C677        H680   1.080       .  S
C678        C679   1.376       .  A
C678        H681   1.080       .  S
C679       C1388   1.468       .  S
N682        C686   1.366       .  A
N682        C683   1.365       .  A
N682       C1047   1.456       .  S
C683        C684   1.376       .  A
C683       C1211   1.486       .  S
C684        C685   1.369       .  A
C684        H687   1.082       .  S
C685        C686   1.389       .  A
C685        H688   1.080       .  S
C686       C1384   1.502       .  S
N689        C693   1.362       .  A
N689        C690   1.355       .  A
N689       C1044   1.455       .  S
C690        C691   1.374       .  A
C690       C1328   1.460       .  S
C691        C692   1.365       .  A
C691        H694   1.082       .  S
C692        C693   1.391       .  A
C692        H695   1.081       .  S
C693       C1276   1.489       .  S
N696        C700   1.373       .  A
N696        C697   1.361       .  A
N696       C1039   1.451       .  S
C697        C698   1.373       .  A
C697       C1272   1.488       .  S
C698        C699   1.372       .  A
C698        H701   1.082       .  S
C699        C700   1.395       .  A
C699        H702   1.079       .  S
C700       C1332   1.517       .  S
N703        C707   1.352       .  A
N703        C704   1.354       .  A
N703       C1035   1.444       .  S
C704        C705   1.379       .  A
C704       C1144   1.458       .  S
C705        C706   1.368       .  A
C705        H708   1.083       .  S
C706        C707   1.380       .  A
C706        H709   1.082       .  S
C707       C1075   1.461       .  S
N710        C714   1.373       .  A
N710        C711   1.362       .  A
N710       C1031   1.451       .  S
C711        C712   1.381       .  A
C711       C1072   1.492       .  S
C712        C713   1.367       .  A
C712        H715   1.083       .  S
C713        C714   1.387       .  A
C713        H716   1.082       .  S
C714       C1148   1.498       .  S
N717        C721   1.350       .  A
N717        C718   1.347       .  A
N717       C1027   1.442       .  S
C718        C719   1.381       .  A
C718       C1444   1.456       .  S
C719        C720   1.368       .  A
C719        H722   1.081       .  S
C720        C721   1.379       .  A
C720        H723   1.082       .  S
C721       C1264   1.453       .  S
N724        C728   1.378       .  A
N724        C725   1.370       .  A
N724       C1023   1.453       .  S
C725        C726   1.384       .  A
C725       C1268   1.513       .  S
C726        C727   1.369       .  A
C726        H729   1.081       .  S
C727        C728   1.386       .  A
C727        H730   1.080       .  S
C728       C1439   1.523       .  S
N731        C735   1.381       .  A
N731        C732   1.374       .  A
N731       C1020   1.456       .  S
C732        C733   1.378       .  A
C732       C1140   1.504       .  S
C733        C734   1.365       .  A
C733        H736   1.081       .  S
C734        C735   1.388       .  A
C734        H737   1.083       .  S
C735       C1375   1.518       .  S
N738        C742   1.348       .  A
N738        C739   1.348       .  A
N738       C1015   1.441       .  S
C739        C740   1.384       .  A
C739       C1136   1.461       .  S
C740        C741   1.368       .  A
C740        H743   1.081       .  S
C741        C742   1.378       .  A
C741        H744   1.083       .  S
C742       C1380   1.452       .  S
N745        C749   1.367       .  A
N745        C746   1.363       .  A
N745       C1012   1.454       .  S
C746        C747   1.393       .  A
C746       C1323   1.503       .  S
C747        C748   1.370       .  A
C747        H750   1.080       .  S
C748        C749   1.374       .  A
C748        H751   1.083       .  S
C749       C1128   1.485       .  S
N752        C756   1.360       .  A
N752        C753   1.359       .  A
N752       C1008   1.455       .  S
C753        C754   1.389       .  A
C753       C1132   1.487       .  S
C754        C755   1.367       .  A
C754        H757   1.080       .  S
C755        C756   1.378       .  A
C755        H758   1.081       .  S
C756       C1319   1.476       .  S
N759        C763   1.358       .  A
N759        C760   1.355       .  A
N759       C1003   1.443       .  S
C760        C761   1.377       .  A
C760       C1068   1.477       .  S
C761        C762   1.377       .  A
C761        H764   1.082       .  S
C762        C763   1.392       .  A
C762        H765   1.081       .  S
C763       C1199   1.497       .  S
N766        C770   1.368       .  A
N766        C767   1.366       .  A
N766        C999   1.458       .  S
C767        C768   1.379       .  A
C767       C1203   1.482       .  S
C768        C769   1.364       .  A
C768        H771   1.082       .  S
C769        C770   1.389       .  A
C769        H772   1.081       .  S
C770       C1064   1.499       .  S
N773        C777   1.353       .  A
N773        C774   1.351       .  A
N773        C996   1.441       .  S
C774        C775   1.380       .  A
C774       C1060   1.465       .  S
C775        C776   1.369       .  A
C775        H778   1.082       .  S
C776        C777   1.381       .  A
C776        H779   1.083       .  S
C777       C1255   1.461       .  S
N780        C784   1.369       .  A
N780        C781   1.377       .  A
N780        C991   1.457       .  S
C781        C782   1.387       .  A
C781       C1055   1.503       .  S
C782        C783   1.362       .  A
C782        H785   1.082       .  S
C783        C784   1.381       .  A
C783        H786   1.081       .  S
C784       C1260   1.499       .  S
N787        C791   1.362       .  A
N787        C788   1.359       .  A
N787        C988   1.453       .  S
C788        C789   1.393       .  A
C788       C1432   1.498       .  S
C789        C790   1.370       .  A
C789        H792   1.080       .  S
C790        C791   1.373       .  A
C790        H793   1.082       .  S
C791       C1196   1.476       .  S
N794        C798   1.354       .  A
N794        C795   1.350       .  A
N794        C984   1.447       .  S
C795        C796   1.389       .  A
C795       C1192   1.474       .  S
C796        C797   1.370       .  A
C796        H799   1.081       .  S
C797        C798   1.376       .  A
C797        H800   1.081       .  S
C798       C1435   1.464       .  S
N801        N802   1.331       .  A
N801        N807   1.318       .  A
N801       Mn830   2.254       .  S
N802        C809   1.363       .  A
N803        N805   1.314       .  A
N803        N804   1.321       .  A
N803       Mn819   2.176   1_655  S
N804        C810   1.349       .  A
N805        N806   1.322       .  A
N805       Mn830   2.235   1_655  S
N806        C810   1.359       .  A
N807        N808   1.321       .  A
N807       Mn819   2.211       .  S
N808        C809   1.351       .  A
C809       C1535   1.495       .  S
C810       C1043   1.476       .  S
N811        N817   1.316       .  A
N811        N812   1.321       .  A
N811       Mn841   2.208       .  S
N812        C820   1.356       .  A
N813        N814   1.313       .  A
N813        N815   1.316       .  A
N813       Mn819   2.176       .  S
N814        C821   1.345       .  A
N815        N816   1.327       .  A
N815       Mn841   2.225   1_455  S
N816        C821   1.359       .  A
N817        N818   1.317       .  A
N817       Mn819   2.189   1_655  S
N818        C820   1.348       .  A
Mn819      Cl843   2.534       .  S
C820        C995   1.464       .  S
C821        C983   1.465       .  S
N822        N823   1.328       .  A
N822        N828   1.318       .  A
N822       Mn830   2.236   1_655  S
N823        C831   1.359       .  A
N824        N826   1.317       .  A
N824        N825   1.314       .  A
N824       Mn842   2.166       .  S
N825        C832   1.343       .  A
N826        N827   1.325       .  A
N826       Mn830   2.242       .  S
N827        C832   1.361       .  A
N828        N829   1.317       .  A
N828       Mn842   2.203   1_655  S
N829        C831   1.350       .  A
Mn830      Cl843   2.571       .  S
C831       C1011   1.475       .  S
C832       C1528   1.468       .  S
N833        N834   1.319       .  A
N833        N839   1.316       .  A
N833       Mn841   2.207   1_455  S
N834        C844   1.353       .  A
N835        N836   1.320       .  A
N835        N837   1.315       .  A
N835       Mn842   2.194   1_655  S
N836        C845   1.349       .  A
N837        N838   1.327       .  A
N837       Mn841   2.235       .  S
N838        C845   1.360       .  A
N839        N840   1.327       .  A
N839       Mn842   2.229       .  S
N840        C844   1.358       .  A
Mn841      Cl843   2.575   1_655  S
Mn842      Cl843   2.538       .  S
C844       C1048   1.483       .  S
C845       C1032   1.484       .  S
N846        N847   1.330       .  A
N846        N852   1.318       .  A
N846       Mn875   2.241   1_554  S
N847        C854   1.359       .  A
N848        N850   1.316       .  A
N848        N849   1.322       .  A
N848       Mn864   2.216       .  S
N849        C855   1.355       .  A
N850        N851   1.317       .  A
N850       Mn875   2.192       .  S
N851        C855   1.350       .  A
N852        N853   1.316       .  A
N852       Mn864   2.192   1_554  S
N853        C854   1.347       .  A
C854       C1488   1.477       .  S
C855       C1028   1.460       .  S
N856        N862   1.314       .  A
N856        N857   1.317       .  A
N856       Mn886   2.201       .  S
N857        C865   1.351       .  A
N858        N859   1.323       .  A
N858        N860   1.315       .  A
N858       Mn864   2.227   1_554  S
N859        C866   1.356       .  A
N860        N861   1.323       .  A
N860       Mn886   2.196   1_554  S
N861        C866   1.353       .  A
N862        N863   1.324       .  A
N862       Mn864   2.209       .  S
N863        C865   1.357       .  A
Mn864      Cl888   2.551       .  S
C865        C987   1.470       .  S
C866       C1512   1.483       .  S
N867        N868   1.328       .  A
N867        N873   1.318       .  A
N867       Mn875   2.243       .  S
N868        C876   1.360       .  A
N869        N871   1.315       .  A
N869        N870   1.330       .  A
N869       Mn887   2.236   1_554  S
N870        C877   1.361       .  A
N871        N872   1.315       .  A
N871       Mn875   2.186   1_554  S
N872        C877   1.348       .  A
N873        N874   1.324       .  A
N873       Mn887   2.224       .  S
N874        C876   1.355       .  A
Mn875      Cl888   2.556       .  S
C876        C992   1.497       .  S
C877       C1007   1.478       .  S
N878        N879   1.321       .  A
N878        N884   1.317       .  A
N878       Mn886   2.196   1_554  S
N879        C889   1.352       .  A
N880        N881   1.324       .  A
N880        N882   1.317       .  A
N880       Mn887   2.233       .  S
N881        C890   1.360       .  A
N882        N883   1.316       .  A
N882       Mn886   2.179       .  S
N883        C890   1.346       .  A
N884        N885   1.317       .  A
N884       Mn887   2.197   1_554  S
N885        C889   1.348       .  A
Mn886      Cl888   2.559       .  S
Mn887      Cl888   2.551       .  S
C889       C1016   1.458       .  S
C890       C1004   1.470       .  S
N891        N892   1.332       .  A
N891        N897   1.317       .  A
N891       Mn920   2.253       .  S
N892        C899   1.365       .  A
N893        N895   1.317       .  A
N893        N894   1.320       .  A
N893       Mn909   2.219   1_565  S
N894        C900   1.355       .  A
N895        N896   1.327       .  A
N895       Mn920   2.227   1_565  S
N896        C900   1.356       .  A
N897        N898   1.316       .  A
N897       Mn909   2.190       .  S
N898        C899   1.345       .  A
C899       C1024   1.485       .  S
C900       C1000   1.484       .  S
N901        N907   1.315       .  A
N901        N902   1.314       .  A
N901       Mn931   2.184   1_565  S
N902        C910   1.346       .  A
N903        N904   1.317       .  A
N903        N905   1.315       .  A
N903       Mn909   2.194       .  S
N904        C911   1.349       .  A
N905        N906   1.319       .  A
N905       Mn931   2.196       .  S
N906        C911   1.354       .  A
N907        N908   1.326       .  A
N907       Mn909   2.216   1_565  S
N908        C910   1.358       .  A
Mn909      Cl933   2.537       .  S
C910       C1052   1.468       .  S
C911       C1552   1.452       .  S
N912        N913   1.321       .  A
N912        N918   1.317       .  A
N912       Mn920   2.205   1_565  S
N913        C921   1.353       .  A
N914        N916   1.320       .  A
N914        N915   1.322       .  A
N914       Mn932   2.223       .  S
N915        C922   1.351       .  A
N916        N917   1.328       .  A
N916       Mn920   2.247       .  S
N917        C922   1.362       .  A
N918        N919   1.318       .  A
N918       Mn932   2.196   1_565  S
N919        C921   1.352       .  A
Mn920      Cl933   2.578       .  S
C921       C1036   1.466       .  S
C922       C1040   1.493       .  S
N923        N924   1.325       .  A
N923        N929   1.313       .  A
N923       Mn931   2.210       .  S
N924        C934   1.358       .  A
N925        N926   1.329       .  A
N925        N927   1.316       .  A
N925       Mn932   2.245   1_565  S
N926        C935   1.362       .  A
N927        N928   1.321       .  A
N927       Mn931   2.201   1_565  S
N928        C935   1.350       .  A
N929        N930   1.314       .  A
N929       Mn932   2.179       .  S
N930        C934   1.347       .  A
Mn931      Cl933   2.559       .  S
Mn932      Cl933   2.538       .  S
C934       C1504   1.462       .  S
C935       C1019   1.493       .  S
O936        C963   1.268       .  A
O936       Mn962   2.073       .  S
C937       C1423   1.464       .  S
C937        O970   1.269       .  A
C937        O967   1.267       .  A
O938       Mn945   2.131       .  S
O938       Mn956   2.161       .  S
O938       Mn960   2.127       .  S
O938       Mn962   2.138       .  S
O939        C949   1.274       .  A
O939       Mn973   2.075       .  S
O940        C963   1.269       .  A
O940       Mn956   2.089       .  S
O941        C968   1.248       .  A
O941       Mn960   2.058       .  S
O942       Mn973   1.985       .  S
O942       Mn962   1.978       .  S
O942        C958   1.223       .  S
C943       C1507   1.459       .  S
C943        O946   1.246       .  A
C943        O969   1.230       .  S
O944       Mn964   2.148       .  S
O944       Mn945   2.133       .  S
O944       Mn978   2.157       .  S
O944       Mn960   2.146       .  S
Mn945       O974   2.057       .  S
Mn945       O950   2.077       .  S
Mn945       O977   2.087       .  S
Mn945       O951   2.156       .  S
O946       Mn960   2.039       .  S
O947        C949   1.265       .  A
O947       Mn954   2.073       .  S
C948       C1411   1.492       .  S
C948        O974   1.249       .  A
C948        O961   1.233       .  S
C949       C1548   1.459       .  S
O950        C975   1.253       .  A
O951       Mn954   2.163       .  S
O951       Mn973   2.134       .  S
O951       Mn960   2.137       .  S
O952       Mn956   1.981       .  S
O952       Mn978   1.966       .  S
O952        C975   1.227       .  S
C953       C1495   1.466       .  S
C953        O979   1.273       .  A
C953        O955   1.267       .  A
Mn954       O967   2.064       .  S
Mn954       O969   1.967       .  S
Mn954       O961   1.980       .  S
O955       Mn978   2.081       .  S
Mn956       O972   2.075       .  S
Mn956       O966   1.982       .  S
O957        C959   1.272       .  A
O957       Mn962   2.094       .  S
C958       C1540   1.499       .  S
C958        O976   1.256       .  A
C959       C1356   1.457       .  S
C959        O972   1.266       .  A
Mn960       O976   2.109       .  S
O961       Mn964   2.005       .  S
Mn962       O980   1.965       .  S
C963       C1523   1.460       .  S
Mn964       O971   2.077       .  S
Mn964       O979   2.096       .  S
Mn964       O969   1.978       .  S
C965       C1468   1.464       .  S
C965        O971   1.269       .  A
C965        O981   1.272       .  A
O966       Mn978   1.992       .  S
O966        C968   1.228       .  S
C968       C1516   1.478       .  S
O970       Mn973   2.094       .  S
Mn973       O980   1.955       .  S
C975       C1480   1.480       .  S
O977        C982   1.250       .  A
Mn978       O981   2.100       .  S
O980        C982   1.219       .  S
C982       C1368   1.466       .  S
C983        C984   1.342       .  D
C983        H985   1.084       .  S
C984        H986   1.086       .  S
C987        C988   1.348       .  D
C987        H989   1.079       .  S
C988        H990   1.085       .  S
C991        C992   1.352       .  D
C991        H993   1.086       .  S
C992        H994   1.084       .  S
C995        C996   1.338       .  D
C995        H997   1.081       .  S
C996        H998   1.087       .  S
C999       C1000   1.356       .  D
C999       H1001   1.086       .  S
C1000      H1002   1.080       .  S
C1003      C1004   1.337       .  D
C1003      H1005   1.086       .  S
C1004      H1006   1.084       .  S
C1007      C1008   1.349       .  D
C1007      H1009   1.084       .  S
C1008      H1010   1.086       .  S
C1011      C1012   1.349       .  D
C1011      H1013   1.083       .  S
C1012      H1014   1.085       .  S
C1015      C1016   1.338       .  D
C1015      H1017   1.087       .  S
C1016      H1018   1.083       .  S
C1019      C1020   1.347       .  D
C1019      H1021   1.083       .  S
C1020      H1022   1.086       .  S
C1023      C1024   1.347       .  D
C1023      H1025   1.086       .  S
C1024      H1026   1.085       .  S
C1027      C1028   1.338       .  D
C1027      H1029   1.087       .  S
C1028      H1030   1.085       .  S
C1031      C1032   1.344       .  D
C1031      H1033   1.087       .  S
C1032      H1034   1.083       .  S
C1035      C1036   1.342       .  D
C1035      H1037   1.087       .  S
C1036      H1038   1.079       .  S
C1039      C1040   1.346       .  D
C1039      H1041   1.086       .  S
C1040      H1042   1.086       .  S
C1043      C1044   1.359       .  D
C1043      H1045   1.080       .  S
C1044      H1046   1.086       .  S
C1047      C1048   1.353       .  D
C1047      H1049   1.086       .  S
C1048      H1050   1.080       .  S
C1051      C1052   1.343       .  D
C1051      H1053   1.086       .  S
C1052      H1054   1.082       .  S
C1055      C1056   1.360       .  D
C1055      H1057   1.085       .  S
C1056      H1058   1.086       .  S
C1059      C1060   1.345       .  D
C1059      H1061   1.084       .  S
C1060      H1062   1.089       .  S
C1063      C1064   1.355       .  D
C1063      H1065   1.086       .  S
C1064      H1066   1.085       .  S
C1067      C1068   1.338       .  D
C1067      H1069   1.089       .  S
C1068      H1070   1.086       .  S
C1071      C1072   1.344       .  D
C1071      H1073   1.089       .  S
C1072      H1074   1.085       .  S
C1075      C1076   1.342       .  D
C1075      H1077   1.089       .  S
C1076      H1078   1.085       .  S
C1079      C1080   1.353       .  D
C1079      H1081   1.086       .  S
C1080      H1082   1.080   1_455  S
C1083      C1084   1.344       .  D
C1083      H1085   1.086       .  S
C1084      H1086   1.087       .  S
C1087      C1088   1.356   1_655  D
C1087      H1089   1.086       .  S
C1088      H1090   1.081       .  S
C1091      C1092   1.355       .  D
C1091      H1093   1.086       .  S
C1092      H1094   1.082       .  S
C1095      C1096   1.349       .  D
C1095      H1097   1.086   1_545  S
C1096      H1098   1.084       .  S
C1099      C1100   1.346       .  D
C1099      H1101   1.088       .  S
C1100      H1102   1.085       .  S
C1103      C1104   1.342       .  D
C1103      H1105   1.083       .  S
C1104      H1106   1.086   1_545  S
C1107      C1108   1.342       .  D
C1107      H1109   1.086       .  S
C1108      H1110   1.088       .  S
C1111      C1112   1.352   1_554  D
C1111      H1113   1.086       .  S
C1112      H1114   1.082       .  S
C1115      C1116   1.354       .  D
C1115      H1117   1.086       .  S
C1116      H1118   1.087       .  S
C1119      C1120   1.330   1_554  D
C1119      H1121   1.081       .  S
C1120      H1122   1.088       .  S
C1123      C1124   1.345       .  D
C1123      H1125   1.089       .  S
C1124      H1126   1.084       .  S
C1127      C1128   1.338       .  D
C1127      H1129   1.087       .  S
C1128      H1130   1.087       .  S
C1131      C1132   1.347       .  D
C1131      H1133   1.085       .  S
C1132      H1134   1.086       .  S
C1135      C1136   1.332       .  D
C1135      H1137   1.087       .  S
C1136      H1138   1.088       .  S
C1139      C1140   1.362       .  D
C1139      H1141   1.086       .  S
C1140      H1142   1.085       .  S
C1143      C1144   1.338       .  D
C1143      H1145   1.088       .  S
C1144      H1146   1.088       .  S
C1147      C1148   1.357       .  D
C1147      H1149   1.087       .  S
C1148      H1150   1.085       .  S
C1151      C1152   1.344       .  D
C1151      H1153   1.087       .  S
C1152      H1154   1.087       .  S
C1155      C1156   1.351       .  D
C1155      H1157   1.088       .  S
C1156      H1158   1.085       .  S
C1159      C1160   1.338   1_565  D
C1159      H1161   1.086       .  S
C1160      H1162   1.087       .  S
C1163      C1164   1.355       .  D
C1163      H1165   1.086       .  S
C1164      H1166   1.087       .  S
C1167      C1168   1.335       .  D
C1167      H1169   1.087   1_545  S
C1168      H1170   1.084       .  S
C1171      C1172   1.336       .  D
C1171      H1173   1.086       .  S
C1172      H1174   1.087       .  S
C1175      C1176   1.352   1_655  D
C1175      H1177   1.086       .  S
C1176      H1178   1.081       .  S
C1179      C1180   1.354       .  D
C1179      H1181   1.085       .  S
C1180      H1182   1.087       .  S
C1183      C1184   1.341   1_655  D
C1183      H1185   1.082       .  S
C1184      H1186   1.087       .  S
C1187      C1188   1.343       .  D
C1187      H1189   1.089       .  S
C1188      H1190   1.086       .  S
C1191      C1192   1.338       .  D
C1191      H1193   1.086       .  S
C1192      H1194   1.086       .  S
C1195      C1196   1.339       .  D
C1195      H1197   1.088       .  S
C1196      H1198   1.087       .  S
C1199      C1200   1.343       .  D
C1199      H1201   1.086       .  S
C1200      H1202   1.086       .  S
C1203      C1204   1.343       .  D
C1203      H1205   1.086       .  S
C1204      H1206   1.089       .  S
C1207      C1208   1.338       .  D
C1207      H1209   1.087       .  S
C1208      H1210   1.086       .  S
C1211      C1212   1.349       .  D
C1211      H1213   1.085       .  S
C1212      H1214   1.088       .  S
C1215      C1216   1.345       .  D
C1215      H1217   1.086       .  S
C1216      H1218   1.086       .  S
C1219      C1220   1.338       .  D
C1219      H1221   1.086       .  S
C1220      H1222   1.087       .  S
C1223      C1224   1.345       .  D
C1223      H1225   1.087       .  S
C1224      H1226   1.086       .  S
C1227      C1228   1.339       .  D
C1227      H1229   1.087       .  S
C1228      H1230   1.087       .  S
C1231      C1232   1.342       .  D
C1231      H1233   1.085       .  S
C1232      H1234   1.085   1_545  S
C1235      C1236   1.343       .  D
C1235      H1237   1.085       .  S
C1236      H1238   1.083       .  S
C1239      C1240   1.345       .  D
C1239      H1241   1.085       .  S
C1240      H1242   1.087   1_556  S
C1243      C1244   1.352       .  D
C1243      H1245   1.083       .  S
C1244      H1246   1.083       .  S
C1247      C1248   1.337       .  D
C1247      H1249   1.087   1_554  S
C1248      H1250   1.085       .  S
C1251      C1252   1.340       .  D
C1251      H1253   1.085       .  S
C1252      H1254   1.087       .  S
C1255      C1256   1.338       .  D
C1255      H1257   1.088       .  S
C1256      H1258   1.087       .  S
C1259      C1260   1.352       .  D
C1259      H1261   1.087       .  S
C1260      H1262   1.085       .  S
C1263      C1264   1.337       .  D
C1263      H1265   1.087       .  S
C1264      H1266   1.089       .  S
C1267      C1268   1.359       .  D
C1267      H1269   1.085       .  S
C1268      H1270   1.085       .  S
C1271      C1272   1.342       .  D
C1271      H1273   1.088       .  S
C1272      H1274   1.087       .  S
C1275      C1276   1.349       .  D
C1275      H1277   1.086       .  S
C1276      H1278   1.086       .  S
C1279      C1280   1.344       .  D
C1279      H1281   1.087       .  S
C1280      H1282   1.087       .  S
C1283      C1284   1.354       .  D
C1283      H1285   1.087       .  S
C1284      H1286   1.085       .  S
C1287      C1288   1.347       .  D
C1287      H1289   1.087   1_455  S
C1288      H1290   1.081       .  S
C1291      C1292   1.342       .  D
C1291      H1293   1.088       .  S
C1292      H1294   1.086       .  S
C1295      C1296   1.345       .  D
C1295      H1297   1.086   1_455  S
C1296      H1298   1.083       .  S
C1299      C1300   1.346       .  D
C1299      H1301   1.086       .  S
C1300      H1302   1.087       .  S
C1303      C1304   1.350       .  D
C1303      H1305   1.087   1_556  S
C1304      H1306   1.085       .  S
C1307      C1308   1.348       .  D
C1307      H1309   1.086       .  S
C1308      H1310   1.084       .  S
C1311      C1312   1.347       .  D
C1311      H1313   1.086   1_554  S
C1312      H1314   1.084       .  S
C1315      C1316   1.341       .  D
C1315      H1317   1.086       .  S
C1316      H1318   1.088       .  S
C1319      C1320   1.339       .  D
C1319      H1321   1.086       .  S
C1320      H1322   1.087       .  S
C1323      C1324   1.353       .  D
C1323      H1325   1.085       .  S
C1324      H1326   1.080       .  S
C1327      C1328   1.333       .  D
C1327      H1329   1.087       .  S
C1328      H1330   1.087       .  S
C1331      C1332   1.364       .  D
C1331      H1333   1.081       .  S
C1332      H1334   1.085       .  S
C1335      C1336   1.333       .  D
C1335      H1337   1.086       .  S
C1336      H1338   1.088       .  S
C1339      C1340   1.346       .  D
C1339      H1341   1.086       .  S
C1340      H1342   1.087       .  S
C1343      C1344   1.345       .  D
C1343      H1345   1.089       .  S
C1344      H1346   1.086       .  S
C1347      C1348   1.346       .  D
C1347      H1349   1.086       .  S
C1348      H1350   1.085       .  S
C1351      C1352   1.342   1_455  D
C1351      H1353   1.084       .  S
C1352      H1354   1.086       .  S
C1355      C1356   1.334       .  D
C1355      H1357   1.086       .  S
C1356      H1358   1.086       .  S
C1359      C1360   1.335       .  D
C1359      H1361   1.086       .  S
C1360      H1362   1.088       .  S
C1363      C1364   1.343       .  D
C1363      H1365   1.087       .  S
C1364      H1366   1.079   1_455  S
C1367      C1368   1.344       .  D
C1367      H1369   1.086       .  S
C1368      H1370   1.087       .  S
C1371      C1372   1.337       .  D
C1371      H1373   1.087       .  S
C1372      H1374   1.088       .  S
C1375      C1376   1.363       .  D
C1375      H1377   1.085       .  S
C1376      H1378   1.088       .  S
C1379      C1380   1.339       .  D
C1379      H1381   1.086       .  S
C1380      H1382   1.088       .  S
C1383      C1384   1.358       .  D
C1383      H1385   1.083       .  S
C1384      H1386   1.085       .  S
C1387      C1388   1.336       .  D
C1387      H1389   1.087       .  S
C1388      H1390   1.086       .  S
C1391      C1392   1.354       .  D
C1391      H1393   1.085       .  S
C1392      H1394   1.088       .  S
C1395      C1396   1.342       .  D
C1395      H1397   1.086       .  S
C1396      H1398   1.089       .  S
C1399      C1400   1.349       .  D
C1399      H1401   1.086       .  S
C1400      H1402   1.086       .  S
C1403      C1404   1.343       .  D
C1403      H1405   1.086       .  S
C1404      H1406   1.088       .  S
C1407      C1408   1.351       .  D
C1407      H1409   1.086   1_545  S
C1408      H1410   1.081       .  S
C1411      C1412   1.353       .  D
C1411      H1413   1.088       .  S
C1412      H1414   1.085       .  S
C1415      C1416   1.364       .  D
C1415      H1417   1.085       .  S
C1416      H1418   1.085       .  S
C1419      C1420   1.345       .  D
C1419      H1421   1.085       .  S
C1420      H1422   1.085   1_545  S
C1423      C1424   1.344       .  D
C1423      H1425   1.086       .  S
C1424      H1426   1.088       .  S
C1427      C1428   1.334       .  D
C1427      H1429   1.087       .  S
C1428      H1430   1.087       .  S
C1431      C1432   1.346       .  D
C1431      H1433   1.082       .  S
C1432      H1434   1.085       .  S
C1435      C1436   1.334       .  D
C1435      H1437   1.087       .  S
C1436      H1438   1.087       .  S
C1439      C1440   1.367       .  D
C1439      H1441   1.085       .  S
C1440      H1442   1.085       .  S
C1443      C1444   1.332       .  D
C1443      H1445   1.085       .  S
C1444      H1446   1.084       .  S
C1447      C1448   1.346       .  D
C1447      H1449   1.084       .  S
C1448      H1450   1.086       .  S
C1451      C1452   1.340       .  D
C1451      H1453   1.088       .  S
C1452      H1454   1.087       .  S
C1455      C1456   1.349       .  D
C1455      H1457   1.088       .  S
C1456      H1458   1.086       .  S
C1459      C1460   1.344       .  D
C1459      H1461   1.087       .  S
C1460      H1462   1.087       .  S
C1463      C1464   1.343   1_556  D
C1463      H1465   1.087       .  S
C1464      H1466   1.082       .  S
C1467      C1468   1.343       .  D
C1467      H1469   1.087       .  S
C1468      H1470   1.087       .  S
C1471      C1472   1.343       .  D
C1471      H1473   1.086       .  S
C1472      H1474   1.088       .  S
C1475      C1476   1.342       .  D
C1475      H1477   1.084       .  S
C1476      H1478   1.086   1_556  S
C1479      C1480   1.349       .  D
C1479      H1481   1.085       .  S
C1480      H1482   1.087       .  S
C1483      C1484   1.361       .  D
C1483      H1485   1.085       .  S
C1484      H1486   1.087       .  S
C1487      C1488   1.345       .  D
C1487      H1489   1.086       .  S
C1488      H1490   1.082       .  S
C1491      C1492   1.347       .  D
C1491      H1493   1.086       .  S
C1492      H1494   1.087       .  S
C1495      C1496   1.339       .  D
C1495      H1497   1.087       .  S
C1496      H1498   1.087       .  S
C1499      C1500   1.334       .  D
C1499      H1501   1.087       .  S
C1500      H1502   1.087       .  S
C1503      C1504   1.343       .  D
C1503      H1505   1.085       .  S
C1504      H1506   1.083       .  S
C1507      C1508   1.341       .  D
C1507      H1509   1.084       .  S
C1508      H1510   1.085       .  S
C1511      C1512   1.352       .  D
C1511      H1513   1.087       .  S
C1512      H1514   1.082       .  S
C1515      C1516   1.347       .  D
C1515      H1517   1.086       .  S
C1516      H1518   1.088       .  S
C1519      C1520   1.352       .  D
C1519      H1521   1.085       .  S
C1520      H1522   1.087       .  S
C1523      C1524   1.344       .  D
C1523      H1525   1.087       .  S
C1524      H1526   1.086       .  S
C1527      C1528   1.335       .  D
C1527      H1529   1.086       .  S
C1528      H1530   1.083       .  S
C1531      C1532   1.341       .  D
C1531      H1533   1.086       .  S
C1532      H1534   1.088       .  S
C1535      C1536   1.350       .  D
C1535      H1537   1.084       .  S
C1536      H1538   1.086       .  S
C1539      C1540   1.363       .  D
C1539      H1541   1.085       .  S
C1540      H1542   1.084       .  S
C1543      C1544   1.366       .  D
C1543      H1545   1.085       .  S
C1544      H1546   1.085       .  S
C1547      C1548   1.333       .  D
C1547      H1549   1.086       .  S
C1548      H1550   1.086       .  S
C1551      C1552   1.336       .  D
C1551      H1553   1.087       .  S
C1552      H1554   1.085       .  S
C1555      C1556   1.344       .  D
C1555      H1557   1.085       .  S
C1556      H1558   1.088       .  S
