geometry optimzed in LAMMPS
_audit_creation_date              2020-12-01 
_audit_creation_method            'lammps2cif' 
_symmetry_space_group_name_H-M    'P1' 
_symmetry_Int_Tables_number       1 
_symmetry_cell_setting            triclinic 
loop_ 
_symmetry_equiv_pos_as_xyz 
  x,y,z 
_cell_length_a                    57.79339554 
_cell_length_b                    57.65461901678026 
_cell_length_c                    54.369429387398995 
_cell_angle_alpha                 90.05096537804869 
_cell_angle_beta                  89.86041482359364 
_cell_angle_gamma                 119.19020506964952 
loop_ 
_atom_site_label 
_atom_site_type_symbol 
_atom_site_fract_x 
_atom_site_fract_y 
_atom_site_fract_z 
_atom_site_charge 
O1          O  0.73090375  0.94495598  0.41733735    -0.73800
O2          O  0.76774371  0.90518731  0.42885573    -0.73900
O3          O  0.72624144  0.89835460  0.40046830    -0.73900
O4          O  0.77287840  0.95208448  0.44460497    -0.74000
O5          O  0.74587931  0.93105550  0.47604093    -0.73900
O6          O  0.69805347  0.87702197  0.43105688    -0.73900
O7          O  0.73934362  0.88381355  0.45937303    -0.73900
O8          O  0.70400064  0.92385738  0.44887761    -0.73900
Ni9        Ni  0.75038771  0.92585932  0.42165887     1.25400
Ni10       Ni  0.72082705  0.90314009  0.45490926     1.25400
C11         C  0.71181191  0.94127905  0.43184136     0.66700
C12         C  0.75932637  0.88789839  0.44623914     0.88300
C13         C  0.70470442  0.87871398  0.40827113     0.88300
C14         C  0.76701283  0.95083989  0.46741386     0.88500
O15         O  0.61446892  0.06351174  0.42531905    -0.73800
O16         O  0.57175659  0.09466562  0.40488076    -0.73900
O17         O  0.56567967  0.05627909  0.43743594    -0.73900
O18         O  0.62049156  0.10217230  0.39312167    -0.74000
O19         O  0.60321857  0.07180176  0.36366617    -0.73900
O20         O  0.54735071  0.02578797  0.40804420    -0.73900
O21         O  0.55418801  0.06421511  0.37563774    -0.73900
O22         O  0.59604814  0.03299068  0.39580809    -0.73900
Ni23       Ni  0.59372855  0.08020658  0.41626274     1.25400
Ni24       Ni  0.57457651  0.04764263  0.38474393     1.25400
C25         C  0.61223104  0.04313906  0.41369906     0.88300
C26         C  0.55583330  0.08459190  0.38665848     0.88300
C27         C  0.54724837  0.03363839  0.43012554     0.88300
C28         C  0.62124815  0.09470493  0.37109725     0.88500
O29         O  0.02396774  0.23990729  0.91943249    -0.73800
O30         O  0.07064992  0.21018875  0.92865629    -0.73900
O31         O  0.02489571  0.20334265  0.95011613    -0.73900
O32         O  0.06956758  0.24644228  0.89738973    -0.74000
O33         O  0.09452237  0.27806678  0.92382455    -0.73900
O34         O  0.04743615  0.23612120  0.97674556    -0.73900
O35         O  0.09328035  0.24182944  0.95615955    -0.73900
O36         O  0.04905575  0.27293250  0.94494046    -0.73900
Ni37       Ni  0.04644631  0.22386057  0.92292281     1.25400
Ni38       Ni  0.07193014  0.25837594  0.95133626     1.25400
C39         C  0.02871632  0.26119519  0.93105815     0.88300
C40         C  0.08983513  0.22133944  0.94403906     0.88300
C41         C  0.02818358  0.21281775  0.97193817     0.88300
C42         C  0.09004436  0.26897254  0.90170093     0.88500
O43         O  0.90107798  0.35390030  0.93534643    -0.73800
O44         O  0.87242943  0.40008450  0.91858164    -0.73900
O45         O  0.86316433  0.35081652  0.90420185    -0.73900
O46         O  0.90959631  0.40293566  0.95006059    -0.74000
O47         O  0.94035560  0.42170041  0.92078149    -0.73900
O48         O  0.89355298  0.36857698  0.87480961    -0.73900
O49         O  0.90305301  0.41812278  0.88912847    -0.73900
O50         O  0.93145798  0.37293837  0.90581996    -0.73900
Ni51       Ni  0.88545553  0.37625438  0.92809433     1.25400
Ni52       Ni  0.91813082  0.39602848  0.89658333     1.25400
C53         C  0.92066678  0.35551363  0.92273632     0.88300
C54         C  0.88381832  0.41733424  0.90147374     0.88300
C55         C  0.87087127  0.35012591  0.88225206     0.88300
C56         C  0.93237669  0.42114657  0.94294421     0.88500
O57         O  0.22959041  0.01180093  0.59752739    -0.73800
O58         O  0.20004328  0.05769968  0.58273719    -0.73900
O59         O  0.19201879  0.00998457  0.56690708    -0.73900
O60         O  0.23729570  0.05983875  0.61454043    -0.74000
O61         O  0.26865282  0.08021998  0.58607072    -0.73900
O62         O  0.22253940  0.02977329  0.53772434    -0.73900
O63         O  0.23148726  0.07800327  0.55428636    -0.73900
O64         O  0.26009742  0.03231077  0.56835736    -0.73900
Ni65       Ni  0.21371524  0.03419000  0.59153886     1.25400
Ni66       Ni  0.24684169  0.05590123  0.56065491     1.25400
C67         C  0.24910575  0.01394571  0.58443729     0.88300
C68         C  0.21086950  0.07512647  0.56565479     0.88300
C69         C  0.19983458  0.01099568  0.54473119     0.88300
C70         C  0.26024506  0.07841298  0.60827412     0.88500
O71         O  0.35499486  0.89942697  0.58065773    -0.73800
O72         O  0.40269700  0.87437962  0.60239811    -0.73900
O73         O  0.35492443  0.86773968  0.61711643    -0.73900
O74         O  0.40243220  0.90567052  0.56480845    -0.74000
O75         O  0.42405788  0.94101116  0.58908745    -0.73900
O76         O  0.37445286  0.90335379  0.64140990    -0.73900
O77         O  0.42242487  0.90953642  0.62709279    -0.73900
O78         O  0.37675499  0.93531908  0.60423395    -0.73900
Ni79       Ni  0.37813970  0.88556893  0.59033902     1.25400
Ni80       Ni  0.40026104  0.92357059  0.61629474     1.25400
C81         C  0.35786377  0.92139767  0.58940006     0.88300
C82         C  0.42007270  0.88766769  0.61890611     0.88300
C83         C  0.35618138  0.87935123  0.63749881     0.88300
C84         C  0.42085638  0.92957279  0.56811248     0.88500
O85         O  0.40209745  0.27828745  0.74905939    -0.73800
O86         O  0.42891013  0.23147354  0.76939253    -0.73900
O87         O  0.39368757  0.22915965  0.73565238    -0.73900
O88         O  0.43844965  0.28081023  0.78219487    -0.74000
O89         O  0.40719332  0.26357841  0.81090009    -0.73900
O90         O  0.36113802  0.21122953  0.76307537    -0.73900
O91         O  0.39654503  0.21349613  0.79707959    -0.73900
O92         O  0.37073956  0.26045003  0.77788548    -0.73900
Ni93       Ni  0.41686969  0.25556728  0.75810423     1.25400
Ni94       Ni  0.38276457  0.23650488  0.78826392     1.25400
C95         C  0.38211743  0.27721562  0.76055949     0.88300
C96         C  0.41680713  0.21444085  0.78653944     0.88300
C97         C  0.37012214  0.21153496  0.74129335     0.88300
C98         C  0.43051008  0.28142542  0.80401257     0.88500
O99         O  0.28717245  0.40019741  0.75185471    -0.73800
O100        O  0.24436808  0.43422274  0.74042348    -0.73900
O101        O  0.24022711  0.39381721  0.76976039    -0.73900
O102        O  0.29196445  0.44116285  0.72387801    -0.74000
O103        O  0.27219959  0.41237102  0.69339090    -0.73900
O104        O  0.21809937  0.36546551  0.73960398    -0.73900
O105        O  0.22472002  0.40610986  0.70939197    -0.73900
O106        O  0.26482621  0.37099125  0.72228525    -0.73900
Ni107      Ni  0.26661916  0.41834617  0.74758593     1.25400
Ni108      Ni  0.24415863  0.38772447  0.71512053     1.25400
C109        C  0.28295282  0.37997728  0.73864415     0.88300
C110        C  0.22775444  0.42580795  0.72249393     0.88300
C111        C  0.22063927  0.37192552  0.76252273     0.88300
C112        C  0.29118077  0.43456916  0.70130273     0.88500
O113        O  0.67884811  0.55770941  0.25069961    -0.73800
O114        O  0.72576086  0.52840082  0.26163992    -0.73900
O115        O  0.67817830  0.51947465  0.27974493    -0.73900
O116        O  0.72619579  0.56645222  0.23164026    -0.74000
O117        O  0.74868369  0.59610373  0.26052983    -0.73900
O118        O  0.69721919  0.54998762  0.30869306    -0.73900
O119        O  0.74495109  0.55777541  0.29185099    -0.73900
O120        O  0.70135302  0.58889966  0.27863084    -0.73900
Ni121      Ni  0.70158461  0.54199661  0.25483967     1.25400
Ni122      Ni  0.72388884  0.57431530  0.28589981     1.25400
C123        C  0.68204360  0.57778673  0.26355906     0.88300
C124        C  0.74266925  0.53806351  0.27922463     0.88300
C125        C  0.67865548  0.52701131  0.30193526     0.88300
C126        C  0.74591699  0.58869121  0.23788568     0.88500
O127        O  0.56690853  0.68266029  0.26115597    -0.73800
O128        O  0.54007659  0.73009513  0.24376840    -0.73900
O129        O  0.53211532  0.68198627  0.22785759    -0.73900
O130        O  0.57468400  0.73049880  0.27791069    -0.74000
O131        O  0.60739827  0.75197930  0.25088993    -0.73900
O132        O  0.56537918  0.70126003  0.20096279    -0.73900
O133        O  0.57243841  0.74933663  0.21597633    -0.73900
O134        O  0.60051840  0.70424392  0.23501465    -0.73900
Ni135      Ni  0.55228964  0.70566520  0.25365978     1.25400
Ni136      Ni  0.58762732  0.72752169  0.22478297     1.25400
C137        C  0.58803466  0.68554292  0.25055165     0.88300
C138        C  0.55169928  0.74720510  0.22658498     0.88300
C139        C  0.54186473  0.68298925  0.20648204     0.88300
C140        C  0.59798874  0.74921751  0.27278656     0.88500
O141        O  0.07510392  0.61658619  0.08697956    -0.73800
O142        O  0.10433015  0.57064322  0.10375494    -0.73900
O143        O  0.06803414  0.56847709  0.07082806    -0.73900
O144        O  0.11190876  0.61888077  0.11860765    -0.74000
O145        O  0.08084051  0.59879505  0.14738167    -0.73900
O146        O  0.03572478  0.54865774  0.09831588    -0.73900
O147        O  0.07180675  0.55030113  0.13093463    -0.73900
O148        O  0.04413225  0.59632208  0.11570463    -0.73900
Ni149      Ni  0.09093926  0.59425622  0.09397365     1.25400
Ni150      Ni  0.05702815  0.57269974  0.12405192     1.25400
C151        C  0.05536503  0.61464747  0.09962989     0.88300
C152        C  0.09277116  0.55289395  0.12050856     0.88300
C153        C  0.04457716  0.55039292  0.07629703     0.88300
C154        C  0.10334551  0.61796885  0.14045209     0.88500
O155        O  0.94930601  0.72861272  0.09499046    -0.73800
O156        O  0.90193183  0.75638339  0.08055257    -0.73900
O157        O  0.90133014  0.71980728  0.11253712    -0.73900
O158        O  0.94999907  0.76553757  0.06383192    -0.74000
O159        O  0.93082218  0.73384276  0.03550161    -0.73900
O160        O  0.88020903  0.68864424  0.08408970    -0.73900
O161        O  0.88293224  0.72544247  0.05149840    -0.73900
O162        O  0.92801452  0.69648329  0.06740564    -0.73900
Ni163      Ni  0.92632522  0.74366995  0.08904314     1.25400
Ni164      Ni  0.90475446  0.70995275  0.05866829     1.25400
C165        C  0.94646905  0.70801750  0.08327842     0.88300
C166        C  0.88501846  0.74567258  0.06311243     0.88300
C167        C  0.88245495  0.69696967  0.10633709     0.88300
C168        C  0.94879466  0.75723851  0.04178500     0.88500
O169        O  0.54270628  0.91148502  0.08939348    -0.73800
O170        O  0.46779767  0.87860954  0.10441816    -0.73900
O171        O  0.50073621  0.91594144  0.07238183    -0.73900
O172        O  0.50958678  0.87318213  0.12083575    -0.74000
O173        O  0.51733110  0.90371946  0.14960595    -0.73900
O174        O  0.50955750  0.94772731  0.10006691    -0.73900
O175        O  0.47658479  0.91041592  0.13208020    -0.73900
O176        O  0.55064305  0.94209862  0.11807828    -0.73900
Ni177      Ni  0.50492569  0.89370303  0.09577925     1.25400
Ni178      Ni  0.51384259  0.92709103  0.12598586     1.25400
C179        C  0.55904006  0.93206618  0.10167229     0.88300
C180        C  0.45992324  0.88975159  0.12035247     0.88300
C181        C  0.50305269  0.93847306  0.07813766     0.88300
C182        C  0.51523631  0.88134510  0.14301478     0.88500
O183        O  0.77573471  0.02493456  0.08736277    -0.73800
O184        O  0.84996668  0.06736055  0.06986546    -0.73900
O185        O  0.81731650  0.07155342  0.10319638    -0.73900
O186        O  0.80875222  0.02029908  0.05481985    -0.74000
O187        O  0.79707962  0.04101210  0.02690274    -0.73900
O188        O  0.80769700  0.09404764  0.07550054    -0.73900
O189        O  0.83866058  0.08794359  0.04153575    -0.73900
O190        O  0.76596226  0.04766105  0.06005407    -0.73900
Ni191      Ni  0.81331963  0.04526304  0.07982025     1.25400
Ni192      Ni  0.80200674  0.06845870  0.05002980     1.25400
C193        C  0.75863752  0.02943370  0.07634091     0.88300
C194        C  0.85635174  0.08464048  0.05257378     0.88300
C195        C  0.81423226  0.09135883  0.09745055     0.88300
C196        C  0.80112601  0.02181478  0.03313405     0.88500
O197        O  0.86796101  0.28320942  0.24856535    -0.73800
O198        O  0.79374921  0.23602604  0.26252170    -0.73900
O199        O  0.83185382  0.28340781  0.28022555    -0.73900
O200        O  0.82974367  0.23640216  0.23021982    -0.74000
O201        O  0.84200900  0.21534863  0.25721430    -0.73900
O202        O  0.84179211  0.26190436  0.30834662    -0.73900
O203        O  0.80552680  0.21446075  0.28929625    -0.73900
O204        O  0.87860794  0.26227021  0.27709988    -0.73900
Ni205      Ni  0.83042901  0.26051557  0.25441401     1.25400
Ni206      Ni  0.84237940  0.23771223  0.28395778     1.25400
C207        C  0.88543457  0.28053731  0.26092922     0.88300
C208        C  0.78752951  0.21722420  0.27821876     0.88300
C209        C  0.83692791  0.28071532  0.30256564     0.88300
C210        C  0.83548399  0.21818694  0.23529439     0.88500
O211        O  0.10147285  0.39452022  0.25327676    -0.73800
O212        O  0.17598413  0.42118002  0.24089414    -0.73900
O213        O  0.13788712  0.42996971  0.22159783    -0.73900
O214        O  0.13994762  0.38635802  0.27313139    -0.74000
O215        O  0.13058505  0.35362249  0.24639787    -0.73900
O216        O  0.12738534  0.39740221  0.19437231    -0.73900
O217        O  0.16557162  0.38870116  0.21353981    -0.73900
O218        O  0.09202501  0.36165333  0.22665564    -0.73900
Ni219      Ni  0.13914211  0.40914993  0.24819577     1.25400
Ni220      Ni  0.12850961  0.37414641  0.21931162     1.25400
C221        C  0.08451342  0.37348924  0.24198742     0.88300
C222        C  0.18286075  0.40941975  0.22475073     0.88300
C223        C  0.13262028  0.42120194  0.19955293     0.88300
C224        C  0.13582633  0.36293060  0.26838291     0.88500
O225        O  0.19285347  0.22519932  0.41583934    -0.73800
O226        O  0.11800821  0.19499746  0.42912248    -0.73900
O227        O  0.15310626  0.23336307  0.39892602    -0.73900
O228        O  0.15754080  0.18639359  0.44557541    -0.74000
O229        O  0.16652522  0.21603113  0.47545524    -0.73900
O230        O  0.16213896  0.26364610  0.42823962    -0.73900
O231        O  0.12735524  0.22533228  0.45849939    -0.73900
O232        O  0.20131648  0.25484235  0.44567131    -0.73900
Ni233      Ni  0.15505599  0.20893123  0.42131253     1.25400
Ni234      Ni  0.16462700  0.24102263  0.45302181     1.25400
C235        C  0.20938566  0.24475133  0.42903398     0.88300
C236        C  0.11049465  0.20562250  0.44584516     0.88300
C237        C  0.15640531  0.25599166  0.40581912     0.88300
C238        C  0.16343052  0.19354552  0.46799889     0.88500
O239        O  0.42626787  0.35240417  0.42527867    -0.73800
O240        O  0.50070366  0.39683648  0.41009518    -0.73900
O241        O  0.46668906  0.39910224  0.44296710    -0.73900
O242        O  0.46063830  0.34989323  0.39298910    -0.74000
O243        O  0.44904157  0.37117906  0.36561753    -0.73900
O244        O  0.45711951  0.42197269  0.41570256    -0.73900
O245        O  0.48961331  0.41782415  0.38222033    -0.73900
O246        O  0.41641471  0.37522215  0.39834994    -0.73900
Ni247      Ni  0.46391391  0.37375657  0.41883933     1.25400
Ni248      Ni  0.45269608  0.39737465  0.38956990     1.25400
C249        C  0.40893731  0.35610888  0.41372912     0.88300
C250        C  0.50743214  0.41497029  0.39360132     0.88300
C251        C  0.46394910  0.41921121  0.43750469     0.88300
C252        C  0.45322889  0.35198136  0.37134575     0.88500
O253        O  0.54212525  0.62556324  0.58118786    -0.73800
O254        O  0.46989770  0.57961908  0.60229399    -0.73900
O255        O  0.51047517  0.62695044  0.61722471    -0.73900
O256        O  0.50120758  0.57814675  0.56551174    -0.74000
O257        O  0.51413884  0.55622087  0.59074126    -0.73900
O258        O  0.52543695  0.60651907  0.64218476    -0.73900
O259        O  0.48435763  0.55930364  0.62789844    -0.73900
O260        O  0.55533652  0.60320584  0.60561102    -0.73900
Ni261      Ni  0.50544007  0.60331136  0.59058432     1.25400
Ni262      Ni  0.52029901  0.58052349  0.61741733     1.25400
C263        C  0.56064249  0.62206845  0.59041430     0.88300
C264        C  0.46543641  0.56223290  0.61907129     0.88300
C265        C  0.51960459  0.62496191  0.63807353     0.88300
C266        C  0.50565900  0.55882027  0.56969027     0.88500
O267        O  0.77596499  0.74341254  0.59730204    -0.73800
O268        O  0.85107481  0.77086451  0.58694644    -0.73900
O269        O  0.81339694  0.78076038  0.56805132    -0.73900
O270        O  0.81389264  0.73373952  0.61693386    -0.74000
O271        O  0.80392025  0.70238006  0.58881920    -0.73900
O272        O  0.80476843  0.75039787  0.53899766    -0.73900
O273        O  0.84164907  0.73923897  0.55889942    -0.73900
O274        O  0.76753195  0.71324414  0.56798897    -0.73900
Ni275      Ni  0.81392611  0.75824616  0.59337408     1.25400
Ni276      Ni  0.80426108  0.72521149  0.56269304     1.25400
C277        C  0.75948493  0.72432684  0.58360698     0.88300
C278        C  0.85855294  0.75943021  0.57101637     0.88300
C279        C  0.80806118  0.77319350  0.54568108     0.88300
C280        C  0.80883644  0.71019771  0.61128146     0.88500
O281        O  0.86993797  0.57186935  0.75509639    -0.73800
O282        O  0.79571077  0.54138768  0.77174372    -0.73900
O283        O  0.82855701  0.57823142  0.73917968    -0.73900
O284        O  0.83654664  0.53446456  0.78692694    -0.74000
O285        O  0.84678124  0.56558600  0.81557125    -0.73900
O286        O  0.83902491  0.61006879  0.76725601    -0.73900
O287        O  0.80627900  0.57325185  0.79979807    -0.73900
O288        O  0.87958255  0.60290489  0.78381121    -0.73900
Ni289      Ni  0.83234170  0.55539594  0.76218665     1.25400
Ni290      Ni  0.84324029  0.58907868  0.79259065     1.25400
C291        C  0.88699329  0.59203339  0.76737546     0.88300
C292        C  0.78893135  0.55263162  0.78850028     0.88300
C293        C  0.83196451  0.60107526  0.74535962     0.88300
C294        C  0.84359444  0.54285174  0.80888121     0.88500
O295        O  0.10378342  0.69176427  0.75239800    -0.73800
O296        O  0.17665381  0.73819455  0.73361603    -0.73900
O297        O  0.14350593  0.73905001  0.76862723    -0.73900
O298        O  0.13709190  0.69047396  0.71785914    -0.74000
O299        O  0.12304830  0.71054198  0.69157421    -0.73900
O300        O  0.13141717  0.76091280  0.74244715    -0.73900
O301        O  0.16302459  0.75818240  0.70673446    -0.73900
O302        O  0.09123859  0.71370453  0.72675198    -0.73900
Ni303      Ni  0.14074260  0.71413700  0.74404775     1.25400
Ni304      Ni  0.12673263  0.73659876  0.71595189     1.25400
C305        C  0.08553793  0.69534075  0.74264904     0.88300
C306        C  0.18165206  0.75569422  0.71683997     0.88300
C307        C  0.13861048  0.75798788  0.76404717     0.88300
C308        C  0.12880717  0.69215278  0.69647545     0.88500
O309        O  0.43295449  0.06013728  0.91794105    -0.73800
O310        O  0.50814729  0.08742991  0.90656337    -0.73900
O311        O  0.46961773  0.09552298  0.88658286    -0.73900
O312        O  0.47180780  0.05266343  0.93888054    -0.74000
O313        O  0.46361593  0.01987823  0.91254253    -0.73900
O314        O  0.45922601  0.06249356  0.85993327    -0.73900
O315        O  0.49813598  0.05484183  0.87946866    -0.73900
O316        O  0.42425750  0.02678786  0.89217716    -0.73900
Ni317      Ni  0.47095731  0.07507099  0.91349284     1.25400
Ni318      Ni  0.46097607  0.03980234  0.88514656     1.25400
C319        C  0.41623194  0.03895698  0.90659364     0.88300
C320        C  0.51531280  0.07574992  0.89053405     0.88300
C321        C  0.46371183  0.08614103  0.86478750     0.88300
C322        C  0.46864436  0.02952010  0.93441678     0.88500
O323        O  0.19817278  0.94684828  0.91948105    -0.73800
O324        O  0.12563211  0.90071324  0.94088107    -0.73900
O325        O  0.16601353  0.94836995  0.95499053    -0.73900
O326        O  0.15719336  0.89934903  0.90400547    -0.74000
O327        O  0.17239062  0.87889872  0.92858589    -0.73900
O328        O  0.17901682  0.92721595  0.98112548    -0.73900
O329        O  0.14012780  0.87940748  0.96478003    -0.73900
O330        O  0.21159002  0.92620491  0.94572801    -0.73900
Ni331      Ni  0.16122120  0.92448050  0.92887201     1.25400
Ni332      Ni  0.17622157  0.90212002  0.95590521     1.25400
C333        C  0.21694006  0.94455300  0.92992217     0.88300
C334        C  0.12101340  0.88257219  0.95695459     0.88300
C335        C  0.17418151  0.94624835  0.97623116     0.88300
C336        C  0.16340396  0.88116917  0.90763801     0.88500
O337        O  0.61529970  0.52712417  0.93275199    -0.73800
O338        O  0.57333116  0.45292310  0.91450892    -0.73900
O339        O  0.62062417  0.49467360  0.90011719    -0.73900
O340        O  0.56878119  0.48519325  0.94818955    -0.74000
O341        O  0.54717190  0.49635838  0.92090875    -0.73900
O342        O  0.59949720  0.50526028  0.87178288    -0.73900
O343        O  0.55207775  0.46450985  0.88718594    -0.73900
O344        O  0.59379379  0.53731478  0.90447636    -0.73900
Ni345      Ni  0.59524373  0.48955562  0.92488932     1.25400
Ni346      Ni  0.57234355  0.50119863  0.89511127     1.25400
C347        C  0.61171744  0.54442645  0.92091642     0.88300
C348        C  0.55537200  0.44665959  0.89796231     0.88300
C349        C  0.61921883  0.50222824  0.87835878     0.88300
C350        C  0.54935326  0.48889294  0.94266327     0.88500
O351        O  0.72672044  0.76112323  0.92943089    -0.73800
O352        O  0.75611098  0.83544873  0.94504334    -0.73900
O353        O  0.76329248  0.79517957  0.96159368    -0.73900
O354        O  0.72004509  0.80183112  0.91223647    -0.74000
O355        O  0.68828975  0.79295887  0.93999654    -0.73900
O356        O  0.73110056  0.78400357  0.98940012    -0.73900
O357        O  0.72445443  0.82494007  0.97320495    -0.73900
O358        O  0.69429490  0.75167296  0.95655825    -0.73900
Ni359      Ni  0.74264806  0.79873103  0.93605275     1.25400
Ni360      Ni  0.70837220  0.78801072  0.96575787     1.25400
C361        C  0.70560994  0.74417742  0.94063966     0.88300
C362        C  0.74518835  0.84232114  0.96202736     0.88300
C363        C  0.75440655  0.78837178  0.98347879     0.88300
C364        C  0.69736214  0.79905457  0.91799150     0.88500
O365        O  0.68405988  0.10308326  0.75479623    -0.73800
O366        O  0.73510140  0.17561221  0.77279903    -0.73900
O367        O  0.73058109  0.14197785  0.73542505    -0.73900
O368        O  0.68777256  0.13708214  0.79088755    -0.74000
O369        O  0.70787792  0.12010351  0.81371745    -0.73900
O370        O  0.75403299  0.12901872  0.75851843    -0.73900
O371        O  0.75498786  0.15975013  0.79690951    -0.73900
O372        O  0.70768889  0.08914301  0.77641652    -0.73900
Ni373      Ni  0.70865127  0.14003363  0.76261267     1.25400
Ni374      Ni  0.73198309  0.12404335  0.78715507     1.25400
C375        C  0.68764746  0.08416440  0.76308352     0.88300
C376        C  0.75346971  0.17957619  0.78835181     0.88300
C377        C  0.74949124  0.13664797  0.73772514     0.88300
C378        C  0.68993337  0.12696499  0.81107746     0.88500
O379        O  0.56450964  0.86615468  0.76748369    -0.73800
O380        O  0.54284466  0.79376316  0.74789875    -0.73900
O381        O  0.57413107  0.82710305  0.78401531    -0.73900
O382        O  0.53289569  0.83276306  0.73188944    -0.74000
O383        O  0.56788998  0.84857832  0.70689691    -0.73900
O384        O  0.60865066  0.84018567  0.75898229    -0.73900
O385        O  0.57718968  0.80909299  0.72206728    -0.73900
O386        O  0.60005186  0.88023792  0.74326262    -0.73900
Ni387      Ni  0.55238499  0.82940940  0.75875169     1.25400
Ni388      Ni  0.58971200  0.84506252  0.73196524     1.25400
C389        C  0.58592852  0.88507676  0.75836063     0.88300
C390        C  0.55628763  0.78973144  0.73121823     0.88300
C391        C  0.59800868  0.83215312  0.78027626     0.88300
C392        C  0.54345716  0.84177320  0.71084929     0.88500
O393        O  0.94371107  0.20147255  0.58790715    -0.73800
O394        O  0.90071155  0.12665839  0.57453323    -0.73900
O395        O  0.94768347  0.16556627  0.55845219    -0.73900
O396        O  0.89621271  0.16185869  0.60454435    -0.74000
O397        O  0.87479293  0.17009999  0.57483297    -0.73900
O398        O  0.92833492  0.17599745  0.52851565    -0.73900
O399        O  0.88077729  0.13630947  0.54425667    -0.73900
O400        O  0.92238414  0.21043234  0.55848102    -0.73900
Ni401      Ni  0.92279030  0.16365003  0.58246233     1.25400
Ni402      Ni  0.90082926  0.17360764  0.55048288     1.25400
C403        C  0.94028006  0.21821705  0.57507401     0.88300
C404        C  0.88399022  0.11937154  0.55684883     0.88300
C405        C  0.94682262  0.17138990  0.53591339     0.88300
C406        C  0.87640537  0.16424107  0.59734335     0.88500
O407        O  0.06305575  0.43530857  0.58507130    -0.73800
O408        O  0.09270581  0.50965560  0.60281167    -0.73900
O409        O  0.10134546  0.46894907  0.61642901    -0.73900
O410        O  0.05530400  0.47620731  0.57039499    -0.74000
O411        O  0.02371996  0.46377819  0.59889983    -0.73900
O412        O  0.07149369  0.45901921  0.64630092    -0.73900
O413        O  0.06086898  0.49779219  0.63065901    -0.73900
O414        O  0.03340310  0.42472213  0.61527764    -0.73900
Ni415      Ni  0.07919525  0.47294068  0.59261786     1.25400
Ni416      Ni  0.04631540  0.46097060  0.62380717     1.25400
C417        C  0.04349363  0.41781869  0.59775658     0.88300
C418        C  0.08137622  0.51599253  0.61992258     0.88300
C419        C  0.09416576  0.46264441  0.63880788     0.88300
C420        C  0.03200809  0.47123967  0.57679556     0.88500
O421        O  0.89714670  0.53161274  0.42114469    -0.73800
O422        O  0.87376711  0.45789760  0.40585160    -0.73900
O423        O  0.90571638  0.49262322  0.44041033    -0.73900
O424        O  0.86439705  0.49629389  0.38706296    -0.74000
O425        O  0.89903814  0.51000354  0.36174462    -0.73900
O426        O  0.93993332  0.50406527  0.41517974    -0.73900
O427        O  0.90741736  0.47089018  0.37989755    -0.73900
O428        O  0.93199773  0.54330753  0.39647800    -0.73900
Ni429      Ni  0.88401824  0.49419660  0.41452387     1.25400
Ni430      Ni  0.92079452  0.50749235  0.38745610     1.25400
C431        C  0.91874239  0.54955442  0.41131001     0.88300
C432        C  0.88687125  0.45216504  0.39015879     0.88300
C433        C  0.92948285  0.49722610  0.43669674     0.88300
C434        C  0.87483609  0.50394109  0.36575555     0.88500
O435        O  0.01646552  0.76639094  0.41762816    -0.73800
O436        O  0.06168262  0.84015917  0.43416834    -0.73900
O437        O  0.06344478  0.80644170  0.40021366    -0.73900
O438        O  0.01475614  0.80035915  0.45088347    -0.74000
O439        O  0.03657053  0.78929560  0.47802294    -0.73900
O440        O  0.08507529  0.79436443  0.42658387    -0.73900
O441        O  0.08367228  0.82820020  0.46032711    -0.73900
O442        O  0.03806221  0.75516851  0.44492875    -0.73900
Ni443      Ni  0.03836443  0.80375168  0.42471936     1.25400
Ni444      Ni  0.06165532  0.79134182  0.45336163     1.25400
C445        C  0.01934075  0.74864964  0.42935751     0.88300
C446        C  0.08012558  0.84617347  0.45007169     0.88300
C447        C  0.08255701  0.80189229  0.40498658     0.88300
C448        C  0.01729495  0.79350212  0.47266606     0.88500
O449        O  0.39692383  0.10053771  0.25762853    -0.73800
O450        O  0.42156227  0.17399261  0.27398344    -0.73900
O451        O  0.43220239  0.13574215  0.28991233    -0.73900
O452        O  0.38692151  0.13914171  0.24092320    -0.74000
O453        O  0.35460001  0.12762262  0.26863327    -0.73900
O454        O  0.40012525  0.12266015  0.31797812    -0.73900
O455        O  0.38952154  0.16091278  0.30221975    -0.73900
O456        O  0.36422870  0.08858638  0.28500742    -0.73900
Ni457      Ni  0.41052031  0.13777442  0.26459803     1.25400
Ni458      Ni  0.37592485  0.12445354  0.29442073     1.25400
C459        C  0.37639441  0.08252121  0.26876389     0.88300
C460        C  0.40969475  0.17930954  0.29126394     0.88300
C461        C  0.42401033  0.12892576  0.31198625     0.88300
C462        C  0.36352001  0.13431444  0.24660982     0.88500
O463        O  0.28717894  0.86629487  0.26251676    -0.73800
O464        O  0.24252217  0.79257975  0.24550687    -0.73900
O465        O  0.29032010  0.83220496  0.23038944    -0.73900
O466        O  0.23907045  0.82628825  0.27829678    -0.74000
O467        O  0.21927068  0.83874035  0.25046265    -0.73900
O468        O  0.27048189  0.84384450  0.20171134    -0.73900
O469        O  0.22228678  0.80479859  0.21758585    -0.73900
O470        O  0.26719635  0.87768336  0.23366928    -0.73900
Ni471      Ni  0.26542017  0.82890143  0.25522756     1.25400
Ni472      Ni  0.24399428  0.84161005  0.22489953     1.25400
C473        C  0.28512429  0.88411428  0.25005278     0.88300
C474        C  0.22512097  0.78677636  0.22860981     0.88300
C475        C  0.28953753  0.83982430  0.20844095     0.88300
C476        C  0.22052851  0.83137697  0.27252008     0.88500
O477        O  0.22915280  0.19419038  0.09501219    -0.73800
O478        O  0.19965509  0.11941875  0.08066849    -0.73900
O479        O  0.23564524  0.15390096  0.11321780    -0.73900
O480        O  0.19276496  0.15990502  0.06298131    -0.74000
O481        O  0.22450712  0.16906589  0.03519140    -0.73900
O482        O  0.26804312  0.16350034  0.08613974    -0.73900
O483        O  0.23228250  0.12931786  0.05363657    -0.73900
O484        O  0.26083030  0.20314981  0.06717464    -0.73900
Ni485      Ni  0.21313205  0.15644790  0.08893544     1.25400
Ni486      Ni  0.24752634  0.16653586  0.05955972     1.25400
C487        C  0.24972111  0.21095568  0.08301509     0.88300
C488        C  0.21152226  0.11220353  0.06494289     0.88300
C489        C  0.25884306  0.15761058  0.10815024     0.88300
C490        C  0.20176618  0.16634618  0.04106044     0.88500
O491        O  0.35684683  0.42768828  0.09514840    -0.73800
O492        O  0.40274953  0.50117813  0.11235286    -0.73900
O493        O  0.40391420  0.46721919  0.07821041    -0.73900
O494        O  0.35539910  0.46179029  0.12865384    -0.74000
O495        O  0.37570557  0.44849207  0.15547944    -0.73900
O496        O  0.42571997  0.45566942  0.10495028    -0.73900
O497        O  0.42312448  0.48835082  0.13946861    -0.73900
O498        O  0.37863332  0.41581287  0.12153806    -0.73900
Ni499      Ni  0.37901412  0.46493650  0.10261350     1.25400
Ni500      Ni  0.40159525  0.45169149  0.13128467     1.25400
C501        C  0.36015896  0.40961002  0.10574336     0.88300
C502        C  0.42029364  0.50674222  0.12913313     0.88300
C503        C  0.42278880  0.46240061  0.08316212     0.88300
C504        C  0.35719072  0.45383446  0.15015903     0.88500
C505        C  0.33580157  0.33579302  0.09526269    -0.04900
C506        C  0.30807442  0.32534650  0.09490762     0.09300
C507        C  0.29743630  0.34270589  0.09660403    -0.02300
C508        C  0.31437451  0.37033937  0.09943828    -0.00500
C509        C  0.34222216  0.38087763  0.10031183    -0.04100
C510        C  0.35281356  0.36339516  0.09782164     0.02900
C511        C  0.29018163  0.29596632  0.09238630     0.09700
C512        C  0.26894588  0.33194563  0.09573223     0.35600
C513        C  0.38130126  0.37377298  0.09747625     0.39000
C514        C  0.28298104  0.27930403  0.11327642    -0.04500
C515        C  0.26900837  0.25137359  0.11050158     0.02700
C516        C  0.26114618  0.24003517  0.08686626    -0.04100
C517        C  0.26638305  0.25686696  0.06625385    -0.00300
C518        C  0.28137210  0.28467899  0.06893692    -0.02900
C519        C  0.29015653  0.29101267  0.13757901     0.36400
C520        C  0.25600394  0.24555582  0.04226115     0.40000
C521        C  0.26411707  0.23440288  0.13175382     0.39100
C522        C  0.28825200  0.30173890  0.04749084     0.36000
C523        C  0.34681519  0.31801771  0.09298776     0.36700
C524        C  0.30294515  0.38763233  0.10269525     0.40000
N525        N  0.26037110  0.22083979  0.14867104    -0.38100
N526        N  0.29566145  0.30045948  0.15695588    -0.39700
N527        N  0.24751763  0.23653548  0.02318312    -0.37400
N528        N  0.29382929  0.31538545  0.03039816    -0.39800
N529        N  0.24619237  0.32321757  0.09494691    -0.39600
N530        N  0.29377949  0.40138309  0.10538119    -0.37200
N531        N  0.40401465  0.38205749  0.09722973    -0.38300
N532        N  0.35557806  0.30382446  0.09118865    -0.39900
C533        C  0.27727721  0.13170081  0.16542644    -0.04900
C534        C  0.30472612  0.14923025  0.16717036     0.09300
C535        C  0.31730693  0.16962963  0.14957349    -0.02300
C536        C  0.30249218  0.17243447  0.13023905    -0.00500
C537        C  0.27490759  0.15466375  0.12824593    -0.04100
C538        C  0.26243655  0.13423903  0.14607646     0.02900
C539        C  0.32025196  0.14579602  0.18756634     0.09700
C540        C  0.34550692  0.18785680  0.15155767     0.35600
C541        C  0.23437850  0.11525043  0.14435037     0.39000
C542        C  0.32935565  0.12721813  0.18511119    -0.04500
C543        C  0.34251670  0.12268459  0.20481310     0.02700
C544        C  0.34702017  0.13698458  0.22706249    -0.04100
C545        C  0.33792783  0.15561809  0.22949913    -0.00300
C546        C  0.32455955  0.15996798  0.20981293    -0.02900
C547        C  0.32530483  0.11290818  0.16215564     0.36400
C548        C  0.34316464  0.17103031  0.25191554     0.40000
C549        C  0.35090288  0.10281192  0.20237855     0.39100
C550        C  0.31538955  0.17920422  0.21228303     0.36000
C551        C  0.26428653  0.11099707  0.18376909     0.36700
C552        C  0.31557268  0.19430498  0.11303763     0.40000
N553        N  0.35746942  0.08686510  0.20049219    -0.38100
N554        N  0.32213649  0.10160050  0.14378821    -0.39700
N555        N  0.34740280  0.18337744  0.26977357    -0.37400
N556        N  0.30809915  0.19459443  0.21413769    -0.39800
N557        N  0.36801181  0.20242274  0.15320772    -0.39600
N558        N  0.32601795  0.21179941  0.09937240    -0.37200
N559        N  0.21198318  0.10011458  0.14306360    -0.38300
N560        N  0.25405996  0.09457911  0.19848180    -0.39900
C561        C  0.32919227  0.01009353  0.25383912    -0.04900
C562        C  0.34522507  0.99840430  0.25863567     0.09300
C563        C  0.37209031  0.01462796  0.26497645    -0.02300
C564        C  0.38267552  0.04238190  0.26727546    -0.00500
C565        C  0.36637556  0.05398449  0.26334098    -0.04100
C566        C  0.33962743  0.03774105  0.25642841     0.02900
C567        C  0.33330608  0.96883358  0.25753652     0.09700
C568        C  0.38862642  0.00263092  0.26959126     0.35600
C569        C  0.32275776  0.04946040  0.25207139     0.39000
C570        C  0.33312155  0.95635579  0.23520003    -0.04500
C571        C  0.31854592  0.92844217  0.23321672     0.02700
C572        C  0.30403478  0.91281374  0.25362473    -0.04100
C573        C  0.30591953  0.92524830  0.27646629    -0.00300
C574        C  0.32037239  0.95321677  0.27836401    -0.02900
C575        C  0.34736590  0.97237668  0.21408559     0.36400
C576        C  0.29199865  0.90949491  0.29774605     0.40000
C577        C  0.31853767  0.91586112  0.21008119     0.39100
C578        C  0.32118933  0.96607718  0.30153059     0.36000
C579        C  0.30182414  0.99352320  0.24642017     0.36700
C580        C  0.40990344  0.05882364  0.27506245     0.40000
N581        N  0.31876750  0.90610457  0.19153791    -0.38100
N582        N  0.35878100  0.98521014  0.19728347    -0.39700
N583        N  0.28105892  0.89720983  0.31494358    -0.37400
N584        N  0.32183819  0.97638899  0.31998587    -0.39800
N585        N  0.40180031  0.99301813  0.27325885    -0.39600
N586        N  0.43157748  0.07209725  0.28135705    -0.37200
N587        N  0.30928107  0.05879173  0.24868093    -0.38300
N588        N  0.28003740  0.98024360  0.24041820    -0.39900
C589        C  0.13136638  0.83369743  0.35157596    -0.04900
C590        C  0.14046571  0.81526330  0.34768987     0.09300
C591        C  0.13011008  0.79209267  0.36238244    -0.02300
C592        C  0.11106906  0.78750692  0.38090347    -0.00500
C593        C  0.10239231  0.80625929  0.38520994    -0.04100
C594        C  0.11266661  0.82937954  0.37031897     0.02900
C595        C  0.16116134  0.82032568  0.32829250     0.09700
C596        C  0.13885451  0.77273323  0.35814476     0.35600
C597        C  0.10464410  0.84929402  0.37469461     0.39000
C598        C  0.18738889  0.82785845  0.33520173    -0.04500
C599        C  0.20651044  0.83099391  0.31726875     0.02700
C600        C  0.20017560  0.82829127  0.29172804    -0.04100
C601        C  0.17386992  0.82160328  0.28491940    -0.00300
C602        C  0.15447805  0.81703494  0.30310954    -0.02900
C603        C  0.19470482  0.83242631  0.36099226     0.36400
C604        C  0.16601429  0.81799248  0.25927830     0.40000
C605        C  0.23255642  0.83659946  0.32562848     0.39100
C606        C  0.12725183  0.80815451  0.29596551     0.36000
C607        C  0.14128697  0.85721442  0.33624133     0.36700
C608        C  0.09956641  0.76288756  0.39475449     0.40000
N609        N  0.25304826  0.84052287  0.33262344    -0.38100
N610        N  0.20051065  0.83613043  0.38155900    -0.39700
N611        N  0.15954979  0.81491248  0.23886001    -0.37400
N612        N  0.10549441  0.80097631  0.29038379    -0.39800
N613        N  0.14597226  0.75740288  0.35473355    -0.39600
N614        N  0.09025187  0.74314897  0.40568153    -0.37200
N615        N  0.09820097  0.86512404  0.37822646    -0.38300
N616        N  0.14894612  0.87586156  0.32387233    -0.39900
C617        C  0.96831915  0.62087927  0.42724300    -0.04900
C618        C  0.95451661  0.63437553  0.42034555     0.09300
C619        C  0.92788715  0.61968705  0.41261023    -0.02300
C620        C  0.91527334  0.59161338  0.41131985    -0.00500
C621        C  0.92957111  0.57821880  0.41705662    -0.04100
C622        C  0.95599080  0.59298729  0.42546751     0.02900
C623        C  0.96829642  0.66412985  0.42160426     0.09700
C624        C  0.91381371  0.63361831  0.40536462     0.35600
C625        C  0.97055913  0.57938999  0.43233967     0.39000
C626        C  0.98183737  0.67960622  0.40085798    -0.04500
C627        C  0.99754068  0.70751438  0.40294731     0.02700
C628        C  0.00027174  0.71995823  0.42595533    -0.04100
C629        C  0.98592282  0.70450069  0.44647918    -0.00300
C630        C  0.96976144  0.67676471  0.44420525    -0.02900
C631        C  0.98033463  0.66662207  0.37760761     0.36400
C632        C  0.98792305  0.71706499  0.47011607     0.40000
C633        C  0.01194459  0.72324019  0.38176591     0.39100
C634        C  0.95503563  0.66103782  0.46528543     0.36000
C635        C  0.99548855  0.63583328  0.43575547     0.36700
C636        C  0.88797919  0.57669353  0.40321247     0.40000
N637        N  0.02345371  0.73584684  0.36488550    -0.38100
N638        N  0.97913493  0.65616243  0.35910449    -0.39700
N639        N  0.98948817  0.72688943  0.48905828    -0.37400
N640        N  0.94322070  0.64847440  0.48206953    -0.39800
N641        N  0.90277415  0.64489605  0.39944614    -0.39600
N642        N  0.86616798  0.56488017  0.39677321    -0.37200
N643        N  0.98209300  0.56845501  0.43775110    -0.38300
N644        N  0.01714655  0.64778599  0.44256491    -0.39900
C645        C  0.01088413  0.50109559  0.52441778    -0.04900
C646        C  0.98506818  0.48059294  0.51921998     0.09300
C647        C  0.97394400  0.45734860  0.53382745    -0.02300
C648        C  0.98872912  0.45452799  0.55329137    -0.00500
C649        C  0.01499966  0.47478403  0.55801306    -0.04100
C650        C  0.02579027  0.49818039  0.54350364     0.02900
C651        C  0.96994507  0.48383927  0.49817179     0.09700
C652        C  0.94742942  0.43616430  0.52849216     0.35600
C653        C  0.05220190  0.51975586  0.54837637     0.39000
C654        C  0.97391237  0.47770806  0.47393584    -0.04500
C655        C  0.96155354  0.48286216  0.45381537     0.02700
C656        C  0.94458700  0.49388246  0.45770021    -0.04100
C657        C  0.94110433  0.50045794  0.48213130    -0.00300
C658        C  0.95362997  0.49537038  0.50214956    -0.02900
C659        C  0.99089526  0.46608221  0.46973881     0.36400
C660        C  0.92564148  0.51367391  0.48676689     0.40000
C661        C  0.96634634  0.47652472  0.42918860     0.39100
C662        C  0.95015694  0.50243503  0.52696341     0.36000
C663        C  0.02213830  0.52534890  0.50997789     0.36700
C664        C  0.97721916  0.43037651  0.56782334     0.40000
N665        N  0.97058763  0.47165292  0.40959963    -0.38100
N666        N  0.00441742  0.45677807  0.46643080    -0.39700
N667        N  0.91342279  0.52432102  0.49053080    -0.37400
N668        N  0.94748692  0.50804436  0.54680633    -0.39800
N669        N  0.92627802  0.41924403  0.52416223    -0.39600
N670        N  0.96802393  0.41111814  0.57946405    -0.37200
N671        N  0.07324300  0.53721703  0.55191038    -0.38300
N672        N  0.03101530  0.54468068  0.49846358    -0.39900
C673        C  0.96423917  0.28911523  0.59662079    -0.04900
C674        C  0.98799180  0.30331535  0.58301000     0.09300
C675        C  0.99638117  0.28927664  0.56735050    -0.02300
C676        C  0.98101415  0.26137480  0.56511254    -0.00500
C677        C  0.95745600  0.24720533  0.57893807    -0.04100
C678        C  0.94932163  0.26114405  0.59493696     0.02900
C679        C  0.00433886  0.33298569  0.58570581     0.09700
C680        C  0.02075592  0.30359764  0.55338868     0.35600
C681        C  0.92563225  0.24665935  0.60976770     0.39000
C682        C  0.01809751  0.34395098  0.60783753    -0.04500
C683        C  0.03096321  0.37165632  0.61167995     0.02700
C684        C  0.03196487  0.38891536  0.59269624    -0.04100
C685        C  0.01921592  0.37805117  0.57011574    -0.00300
C686        C  0.00498355  0.35016403  0.56682670    -0.02900
C687        C  0.01864520  0.32659052  0.62686678     0.36400
C688        C  0.01913748  0.39548382  0.55093628     0.40000
C689        C  0.04235293  0.38225842  0.63558954     0.39100
C690        C  0.98999509  0.33907658  0.54445670     0.36000
C691        C  0.95484183  0.30342840  0.61194319     0.36700
C692        C  0.98933159  0.24734102  0.54826281     0.40000
N693        N  0.05107680  0.39056227  0.65479222    -0.38100
N694        N  0.01910314  0.31272022  0.64200239    -0.39700
N695        N  0.01900654  0.40942327  0.53569740    -0.37400
N696        N  0.97792656  0.33017115  0.52666192    -0.39800
N697        N  0.04012463  0.31503925  0.54213923    -0.39600
N698        N  0.99621929  0.23651273  0.53462604    -0.37200
N699        N  0.90690228  0.23513577  0.62182819    -0.38300
N700        N  0.94739009  0.31496084  0.62406708    -0.39900
C701        C  0.80970196  0.16282784  0.69524393    -0.04900
C702        C  0.79860488  0.14811837  0.67358195     0.09300
C703        C  0.77117882  0.12995955  0.67276198    -0.02300
C704        C  0.75508638  0.12611621  0.69370540    -0.00500
C705        C  0.76647256  0.13994956  0.71584855    -0.04100
C706        C  0.79382109  0.15853673  0.71634515     0.02900
C707        C  0.81638693  0.15077782  0.65231327     0.09700
C708        C  0.75957032  0.11540438  0.65027028     0.35600
C709        C  0.80554742  0.17427714  0.73818494     0.39000
C710        C  0.82775418  0.13405731  0.65104229    -0.04500
C711        C  0.84718670  0.13844736  0.63313637     0.02700
C712        C  0.85485499  0.15914662  0.61552618    -0.04100
C713        C  0.84212241  0.17484684  0.61593946    -0.00300
C714        C  0.82344977  0.17104436  0.63461633    -0.02900
C715        C  0.81958593  0.11240256  0.66849863     0.36400
C716        C  0.84878138  0.19555681  0.59777175     0.40000
C717        C  0.85895997  0.12121804  0.63285106     0.39100
C718        C  0.81201370  0.18847818  0.63614904     0.36000
C719        C  0.83748887  0.18286344  0.69556980     0.36700
C720        C  0.72684098  0.10775796  0.69248519     0.40000
N721        N  0.86842969  0.10756225  0.63276202    -0.38100
N722        N  0.81291691  0.09504541  0.68233080    -0.39700
N723        N  0.85395199  0.21203793  0.58323979    -0.37400
N724        N  0.80299519  0.20247930  0.63754799    -0.39800
N725        N  0.75034296  0.10387005  0.63227535    -0.39600
N726        N  0.70428481  0.09320292  0.69143489    -0.37200
N727        N  0.81528043  0.18720291  0.75535758    -0.38300
N728        N  0.85958505  0.19904949  0.69563437    -0.39900
C729        C  0.62675047  0.01656143  0.77103653    -0.04900
C730        C  0.63626890  0.99951944  0.76256756     0.09300
C731        C  0.66139501  0.01077176  0.75100367    -0.02300
C732        C  0.67752331  0.03862571  0.74954858    -0.00500
C733        C  0.66831299  0.05565152  0.75862791    -0.04100
C734        C  0.64230996  0.04445105  0.76820592     0.02900
C735        C  0.62004046  0.96973559  0.76537960     0.09700
C736        C  0.67095289  0.99363087  0.74102899     0.35600
C737        C  0.63198881  0.06166684  0.77616633     0.39000
C738        C  0.59686767  0.95504678  0.75122709    -0.04500
C739        C  0.58378711  0.92696079  0.75132732     0.02700
C740        C  0.59464027  0.91334430  0.76431002    -0.04100
C741        C  0.61663319  0.92781523  0.77980965    -0.00300
C742        C  0.62892042  0.95586895  0.78078328    -0.02900
C743        C  0.58723216  0.96881573  0.73554770     0.36400
C744        C  0.62669826  0.91376730  0.79459920     0.40000
C745        C  0.55934360  0.91205366  0.73773087     0.39100
C746        C  0.65116744  0.97055203  0.79714520     0.36000
C747        C  0.60156301  0.00552595  0.78384571     0.36700
C748        C  0.70389413  0.04985292  0.73895432     0.40000
N749        N  0.53954382  0.90027404  0.72726791    -0.38100
N750        N  0.57959616  0.97988583  0.72307321    -0.39700
N751        N  0.63460568  0.90252817  0.80651511    -0.37400
N752        N  0.66891120  0.98227753  0.81020877    -0.39800
N753        N  0.67859165  0.97992823  0.73318991    -0.39600
N754        N  0.72495352  0.05880994  0.73058728    -0.37200
N755        N  0.62367999  0.07540986  0.78230585    -0.38300
N756        N  0.58152892  0.99678131  0.79419398    -0.39900
C757        C  0.66193034  0.79392461  0.85767286    -0.04900
C758        C  0.65584966  0.81473357  0.86013754     0.09300
C759        C  0.66281866  0.82997868  0.88193174    -0.02300
C760        C  0.67583507  0.82445876  0.90115258    -0.00500
C761        C  0.68184982  0.80356242  0.89870148    -0.04100
C762        C  0.67487083  0.78834296  0.87687073     0.02900
C763        C  0.64125587  0.81991905  0.83999565     0.09700
C764        C  0.65686370  0.85156411  0.88439035     0.35600
C765        C  0.68074386  0.76669446  0.87428062     0.39000
C766        C  0.61340360  0.80584069  0.83955381    -0.04500
C767        C  0.59934897  0.81006866  0.82046951     0.02700
C768        C  0.61313255  0.82820114  0.80097057    -0.04100
C769        C  0.64133174  0.84232970  0.80165555    -0.00300
C770        C  0.65518536  0.83827615  0.82114621    -0.02900
C771        C  0.59915571  0.78657949  0.85878643     0.36400
C772        C  0.65644707  0.86160144  0.78275135     0.40000
C773        C  0.57061606  0.79517039  0.82115262     0.39100
C774        C  0.68391578  0.85295185  0.82189221     0.36000
C775        C  0.65495270  0.77836840  0.83523454     0.36700
C776        C  0.68412253  0.84105166  0.92297379     0.40000
N777        N  0.54769185  0.78328041  0.82197679    -0.38100
N778        N  0.58787096  0.77115847  0.87405908    -0.39700
N779        N  0.66867503  0.87697761  0.76774025    -0.37400
N780        N  0.70683889  0.86463591  0.82262308    -0.39800
N781        N  0.65216740  0.86883380  0.88631027    -0.39600
N782        N  0.69087905  0.85435326  0.94033363    -0.37200
N783        N  0.68544387  0.74943444  0.87226453    -0.38300
N784        N  0.64939422  0.76604771  0.81727257    -0.39900
C785        C  0.65658612  0.61789911  0.90787060    -0.04900
C786        C  0.65657356  0.62942246  0.93074225     0.09300
C787        C  0.64327737  0.61288308  0.95099982    -0.02300
C788        C  0.62952502  0.58492476  0.94824873    -0.00500
C789        C  0.62886532  0.57340665  0.92514245    -0.04100
C790        C  0.64265235  0.59006376  0.90500544     0.02900
C791        C  0.66947106  0.65906647  0.93299432     0.09700
C792        C  0.64318778  0.62479113  0.97446529     0.35600
C793        C  0.64226381  0.57862066  0.88110444     0.39000
C794        C  0.65429494  0.67195004  0.92962558    -0.04500
C795        C  0.66646232  0.69989828  0.93080008     0.02700
C796        C  0.69387440  0.71522370  0.93580135    -0.04100
C797        C  0.70913891  0.70231826  0.93888296    -0.00300
C798        C  0.69688807  0.67430387  0.93770201    -0.02900
C799        C  0.62595299  0.65632365  0.92561802     0.36400
C800        C  0.73720691  0.71770760  0.94432842     0.40000
C801        C  0.65080938  0.71295954  0.92643099     0.39100
C802        C  0.71220855  0.66097683  0.94229830     0.36000
C803        C  0.67047029  0.63480557  0.88708116     0.36700
C804        C  0.61476074  0.56813254  0.96876636     0.40000
N805        N  0.63842961  0.72346138  0.92285990    -0.38100
N806        N  0.60329628  0.64383425  0.92270598    -0.39700
N807        N  0.75959573  0.72995827  0.94871281    -0.37400
N808        N  0.72428889  0.65023156  0.94620176    -0.39800
N809        N  0.64313833  0.63446008  0.99311203    -0.39600
N810        N  0.60286872  0.55472423  0.98510846    -0.37200
N811        N  0.64193466  0.56964823  0.86197209    -0.38300
N812        N  0.68156503  0.64827837  0.87050440    -0.39900
C813        C  0.50342245  0.49876594  0.98698118    -0.04900
C814        C  0.49432903  0.47599228  0.00203163     0.09300
C815        C  0.50211191  0.45685193  0.99665757    -0.02300
C816        C  0.51917456  0.46061401  0.97663400    -0.00500
C817        C  0.52919914  0.48395006  0.96208821    -0.04100
C818        C  0.52111027  0.50295422  0.96731643     0.02900
C819        C  0.47610048  0.47186913  0.02331050     0.09700
C820        C  0.49245603  0.43319117  0.01178551     0.35600
C821        C  0.53189935  0.52739249  0.95323354     0.39000
C822        C  0.44863845  0.45441366  0.02096324    -0.04500
C823        C  0.43131212  0.45097727  0.04067642     0.02700
C824        C  0.44135370  0.46472318  0.06308713    -0.04100
C825        C  0.46895014  0.48163408  0.06567531    -0.00300
C826        C  0.48623994  0.48526372  0.04581452    -0.02900
C827        C  0.43826520  0.43994174  0.99817514     0.36400
C828        C  0.47946010  0.49610034  0.08844682     0.40000
C829        C  0.40312865  0.43287811  0.03800065     0.39100
C830        C  0.51450264  0.50286900  0.04846022     0.36000
C831        C  0.49433823  0.51777160  0.99168240     0.36700
C832        C  0.52590614  0.44006029  0.97070072     0.40000
N833        N  0.38064969  0.41845844  0.03585908    -0.38100
N834        N  0.43015840  0.42830764  0.98001143    -0.39700
N835        N  0.48776008  0.50761282  0.10664011    -0.37400
N836        N  0.53705537  0.51695092  0.05055516    -0.39800
N837        N  0.48465182  0.41429504  0.02382238    -0.39600
N838        N  0.53121769  0.42364382  0.96593000    -0.37200
N839        N  0.54065345  0.54694984  0.94206743    -0.38300
N840        N  0.48689873  0.53280074  0.99540640    -0.39900
C841        C  0.21071439  0.04655556  0.05566524    -0.04900
C842        C  0.18855717  0.03310116  0.04012835     0.09300
C843        C  0.17189570  0.04418228  0.03563609    -0.02300
C844        C  0.17820066  0.06926814  0.04551285    -0.00500
C845        C  0.20159070  0.08369383  0.05935108    -0.04100
C846        C  0.21750662  0.07198418  0.06487807     0.02900
C847        C  0.18565711  0.01005191  0.02502603     0.09700
C848        C  0.14931007  0.03055739  0.01942613     0.35600
C849        C  0.24153182  0.08660171  0.07918555     0.39000
C850        C  0.16799675  0.98352483  0.03185835    -0.04500
C851        C  0.16482764  0.96226940  0.01652727     0.02700
C852        C  0.17945151  0.96754603  0.99439112    -0.04100
C853        C  0.19736980  0.99415499  0.98787591    -0.00300
C854        C  0.20038223  0.01521820  0.00305943    -0.02900
C855        C  0.15255509  0.97826147  0.05423528     0.36400
C856        C  0.21240521  0.00005785  0.96512623     0.40000
C857        C  0.14531069  0.93524150  0.02275340     0.39100
C858        C  0.21803335  0.04246243  0.99560286     0.36000
C859        C  0.22726197  0.03472838  0.06108034     0.36700
C860        C  0.16170373  0.08110168  0.03991590     0.40000
N861        N  0.12948696  0.91378951  0.02782927    -0.38100
N862        N  0.14016238  0.97410858  0.07206609    -0.39700
N863        N  0.22432779  0.00498230  0.94694044    -0.37400
N864        N  0.23197129  0.06419363  0.98964769    -0.39800
N865        N  0.13140555  0.01967645  0.00634915    -0.39600
N866        N  0.14858373  0.09059499  0.03546064    -0.37200
N867        N  0.26081001  0.09829383  0.09043470    -0.38300
N868        N  0.24038331  0.02520375  0.06540349    -0.39900
C869        C  0.58939701  0.09742773  0.89232359    -0.04900
C870        C  0.59606735  0.10241652  0.86712977     0.09300
C871        C  0.57662704  0.10018798  0.85017202    -0.02300
C872        C  0.55066279  0.09254229  0.85817551    -0.00500
C873        C  0.54365153  0.08678559  0.88326229    -0.04100
C874        C  0.56322388  0.08953032  0.90038725     0.02900
C875        C  0.62334497  0.10971748  0.85789001     0.09700
C876        C  0.58329648  0.10539830  0.82427207     0.35600
C877        C  0.55617934  0.08305414  0.92604341     0.39000
C878        C  0.63008023  0.08970968  0.85275300    -0.04500
C879        C  0.65347909  0.09585495  0.83948132     0.02700
C880        C  0.66998709  0.12197372  0.83073847    -0.04100
C881        C  0.66421885  0.14231384  0.83754441    -0.00300
C882        C  0.64113020  0.13622828  0.85122279    -0.02900
C883        C  0.61204780  0.06247171  0.85979414     0.36400
C884        C  0.68174129  0.16950428  0.82998308     0.40000
C885        C  0.65936949  0.07482391  0.83317651     0.39100
C886        C  0.63492847  0.15705287  0.85747912     0.36000
C887        C  0.60946457  0.10019581  0.90982149     0.36700
C888        C  0.53107855  0.09069519  0.84044846     0.40000
N889        N  0.66403841  0.05804077  0.82808865    -0.38100
N890        N  0.59761837  0.04072477  0.86538202    -0.39700
N891        N  0.69562605  0.19125854  0.82404874    -0.37400
N892        N  0.62989771  0.17360713  0.86247477    -0.39800
N893        N  0.58867603  0.10960617  0.80363785    -0.39600
N894        N  0.51545573  0.08919202  0.82632666    -0.37200
N895        N  0.55058868  0.07778138  0.94652442    -0.38300
N896        N  0.62557962  0.10244788  0.92370380    -0.39900
C897        C  0.34687011  0.03238005  0.90585939    -0.04900
C898        C  0.33073031  0.00526799  0.91189571     0.09300
C899        C  0.34283344  0.98950352  0.91642379    -0.02300
C900        C  0.37068429  0.00070115  0.91528013    -0.00500
C901        C  0.38696832  0.02794422  0.90969156    -0.04100
C902        C  0.37486910  0.04373969  0.90497842     0.02900
C903        C  0.30122829  0.99345538  0.91577105     0.09700
C904        C  0.32646665  0.96159201  0.92241046     0.35600
C905        C  0.39116977  0.07151156  0.89853274     0.39000
C906        C  0.28323274  0.98372882  0.89587016    -0.04500
C907        C  0.25550074  0.96896366  0.90025971     0.02700
C908        C  0.24557880  0.96347903  0.92461339    -0.04100
C909        C  0.26364523  0.97467266  0.94441821    -0.00300
C910        C  0.29117521  0.98971850  0.93997028    -0.02900
C911        C  0.29331365  0.98823805  0.87090449     0.36400
C912        C  0.25399512  0.97075658  0.96958213     0.40000
C913        C  0.23731623  0.95822016  0.87975148     0.39100
C914        C  0.30942530  0.00097287  0.96041963     0.36000
C915        C  0.33460153  0.04849463  0.90034502     0.36700
C916        C  0.38265275  0.98421087  0.92051976     0.40000
N917        N  0.22269623  0.94961780  0.86344996    -0.38100
N918        N  0.30131034  0.99189931  0.85093943    -0.39700
N919        N  0.24639961  0.96766831  0.98967510    -0.37400
N920        N  0.32411225  0.01003286  0.97661679    -0.39800
N921        N  0.31333052  0.93935022  0.92722081    -0.39600
N922        N  0.39227240  0.97112658  0.92468207    -0.37200
N923        N  0.40425021  0.09368538  0.89344124    -0.38300
N924        N  0.32478119  0.06129129  0.89571273    -0.39900
C925        C  0.09664986  0.63562773  0.64988812    -0.04900
C926        C  0.11457662  0.62558958  0.65035734     0.09300
C927        C  0.13906919  0.64015095  0.66250458    -0.02300
C928        C  0.14469360  0.66341102  0.67569695    -0.00500
C929        C  0.12541962  0.67176755  0.67771041    -0.04100
C930        C  0.10177862  0.65836499  0.66385120     0.02900
C931        C  0.10598302  0.59777029  0.64175848     0.09700
C932        C  0.15790428  0.63035234  0.66251688     0.35600
C933        C  0.08178416  0.66659958  0.66536495     0.39000
C934        C  0.11512684  0.59275693  0.61939565    -0.04500
C935        C  0.10831011  0.56641893  0.61258163     0.02700
C936        C  0.09131230  0.54451666  0.62777022    -0.04100
C937        C  0.08275538  0.55008875  0.65061520    -0.00300
C938        C  0.08981401  0.57636117  0.65724727    -0.02900
C939        C  0.13125980  0.61482570  0.60322073     0.36400
C940        C  0.06740913  0.52917840  0.66822045     0.40000
C941        C  0.11942709  0.56238466  0.59011823     0.39100
C942        C  0.08037882  0.58145474  0.68034210     0.36000
C943        C  0.07236718  0.62176153  0.63583209     0.36700
C944        C  0.17032723  0.67862225  0.68742736     0.40000
N945        N  0.12872175  0.55952096  0.57228496    -0.38100
N946        N  0.14398777  0.63246184  0.59027559    -0.39700
N947        N  0.05518829  0.51268741  0.68239675    -0.37400
N948        N  0.07269602  0.58543882  0.69865556    -0.39800
N949        N  0.17286026  0.62244290  0.66253576    -0.39600
N950        N  0.19081066  0.69085319  0.69667034    -0.37200
N951        N  0.06574686  0.67306998  0.66663984    -0.38300
N952        N  0.05308520  0.61072791  0.62447573    -0.39900
C953        C  0.13463788  0.78363491  0.82773971    -0.04900
C954        C  0.14978719  0.81140795  0.82453319     0.09300
C955        C  0.16034011  0.82172666  0.80106724    -0.02300
C956        C  0.15649895  0.80438916  0.78115894    -0.00500
C957        C  0.14140328  0.77655858  0.78439268    -0.04100
C958        C  0.13008457  0.76632863  0.80772081     0.02900
C959        C  0.15366680  0.82967497  0.84578317     0.09700
C960        C  0.17499186  0.85024197  0.79739273     0.35600
C961        C  0.11296107  0.73795796  0.81100585     0.39000
C962        C  0.17797499  0.84229882  0.85864334    -0.04500
C963        C  0.18124817  0.85909452  0.87888822     0.02700
C964        C  0.15991944  0.86265709  0.88698718    -0.04100
C965        C  0.13550364  0.84966351  0.87424333    -0.00300
C966        C  0.13257214  0.83368170  0.85353672    -0.02900
C967        C  0.19956456  0.83785347  0.85107965     0.36400
C968        C  0.11295296  0.85197219  0.88280655     0.40000
C969        C  0.20691998  0.87367388  0.89064475     0.39100
C970        C  0.10776906  0.82133360  0.84006014     0.36000
C971        C  0.12374096  0.77287341  0.85177448     0.36700
C972        C  0.16896982  0.81519948  0.75762682     0.40000
N973        N  0.22742854  0.88553968  0.89993729    -0.38100
N974        N  0.21675248  0.83422347  0.84504416    -0.39700
N975        N  0.09468653  0.85341949  0.88948187    -0.37400
N976        N  0.08803507  0.81147667  0.82925533    -0.39800
N977        N  0.18660854  0.87300375  0.79444406    -0.39600
N978        N  0.17901061  0.82374277  0.73885937    -0.37200
N979        N  0.09916731  0.71535774  0.81358216    -0.38300
N980        N  0.11507368  0.76438640  0.87097523    -0.39900
C981        C  0.72322975  0.54975764  0.80307850    -0.04900
C982        C  0.70976416  0.52532733  0.81567024     0.09300
C983        C  0.72103395  0.50842597  0.81665858    -0.02300
C984        C  0.74627302  0.51655812  0.80621117    -0.00500
C985        C  0.76065682  0.54196162  0.79536443    -0.04100
C986        C  0.74888611  0.55840850  0.79358460     0.02900
C987        C  0.68600143  0.51952437  0.83110719     0.09700
C988        C  0.70723631  0.48329551  0.82959133     0.35600
C989        C  0.76358551  0.58474907  0.78290540     0.39000
C990        C  0.65998879  0.50278018  0.82258170    -0.04500
C991        C  0.63794900  0.49696120  0.83788974     0.02700
C992        C  0.64183491  0.50879666  0.86137873    -0.04100
C993        C  0.66795094  0.52632058  0.86946114    -0.00300
C994        C  0.68986318  0.53124641  0.85459061    -0.02900
C995        C  0.65600476  0.49174688  0.79802016     0.36400
C996        C  0.67242683  0.53985679  0.89295017     0.40000
C997        C  0.61146249  0.47773750  0.83004797     0.39100
C998        C  0.71657299  0.54833656  0.86353566     0.36000
C999        C  0.71092142  0.56635747  0.80067470     0.36700
C1000       C  0.75832416  0.49969857  0.80836739     0.40000
N1001       N  0.59032415  0.46215869  0.82397509    -0.38100
N1002       N  0.65288855  0.48315620  0.77830955    -0.39700
N1003       N  0.67615264  0.55083599  0.91157806    -0.37400
N1004       N  0.73788314  0.56188821  0.87063212    -0.39800
N1005       N  0.69623038  0.46327526  0.83997964    -0.39600
N1006       N  0.76805658  0.48635659  0.81012970    -0.37200
N1007       N  0.77535160  0.60588541  0.77466146    -0.38300
N1008       N  0.70094409  0.57944762  0.79864266    -0.39900
C1009       C  0.95540967  0.62659176  0.73738037    -0.04900
C1010       C  0.97190939  0.62979948  0.75771504     0.09300
C1011       C  0.96033566  0.61865516  0.78060948    -0.02300
C1012       C  0.93251998  0.60550944  0.78348804    -0.00500
C1013       C  0.91596683  0.60302356  0.76333609    -0.04100
C1014       C  0.92751306  0.61300795  0.74011380     0.02900
C1015       C  0.00149376  0.64630750  0.75542419     0.09700
C1016       C  0.97718190  0.62121330  0.80133599     0.35600
C1017       C  0.91074604  0.61044289  0.71933562     0.39000
C1018       C  0.01377651  0.67411503  0.75849012    -0.04500
C1019       C  0.04150503  0.68988968  0.75592771     0.02700
C1020       C  0.05714748  0.67811837  0.74938248    -0.04100
C1021       C  0.04496715  0.65017249  0.74718156    -0.00300
C1022       C  0.01726321  0.63431092  0.75048423    -0.02900
C1023       C  0.99775051  0.68651483  0.76404990     0.36400
C1024       C  0.06074565  0.63781953  0.74052468     0.40000
C1025       C  0.05407980  0.71822514  0.76071449     0.39100
C1026       C  0.00485812  0.60564448  0.74856684     0.36000
C1027       C  0.96724848  0.63800279  0.71381313     0.36700
C1028       C  0.92094899  0.59453120  0.80729564     0.40000
N1029       N  0.06420054  0.74077836  0.76477152    -0.38100
N1030       N  0.98490210  0.69636524  0.76836163    -0.39700
N1031       N  0.07345565  0.62808910  0.73520285    -0.37400
N1032       N  0.99490630  0.58273948  0.74721365    -0.39800
N1033       N  0.99069297  0.62321713  0.81779748    -0.39600
N1034       N  0.91181904  0.58586558  0.82632637    -0.37200
N1035       N  0.89726950  0.60832677  0.70280925    -0.38300
N1036       N  0.97675028  0.64722828  0.69504411    -0.39900
C1037       C  0.98441437  0.79867274  0.53216449    -0.04900
C1038       C  0.95737671  0.78464943  0.52559712     0.09300
C1039       C  0.95009042  0.77235904  0.50232680    -0.02300
C1040       C  0.96964895  0.77493062  0.48532964    -0.00500
C1041       C  0.99686866  0.78968125  0.49147561    -0.04100
C1042       C  0.00413568  0.80110025  0.51520473     0.02900
C1043       C  0.93600980  0.78258730  0.54268129     0.09700
C1044       C  0.92223853  0.75686829  0.49596181     0.35600
C1045       C  0.03188652  0.81608994  0.52189162     0.39000
C1046       C  0.92462076  0.79914229  0.53906800    -0.04500
C1047       C  0.90035493  0.79305812  0.55054381     0.02700
C1048       C  0.88706353  0.77003957  0.56521018    -0.04100
C1049       C  0.89961811  0.75487960  0.57057696    -0.00300
C1050       C  0.92417279  0.76129642  0.55950504    -0.02900
C1051       C  0.93698167  0.82136196  0.52216696     0.36400
C1052       C  0.88693268  0.73227625  0.58701044     0.40000
C1053       C  0.88815185  0.80945046  0.54593622     0.39100
C1054       C  0.93659633  0.74516120  0.56430702     0.36000
C1055       C  0.99189200  0.81074948  0.55629361     0.36700
C1056       C  0.96153383  0.76164535  0.46169042     0.40000
N1057       N  0.87838424  0.82251913  0.54237629    -0.38100
N1058       N  0.94677611  0.83898278  0.50854951    -0.39700
N1059       N  0.87702905  0.71432191  0.60024929    -0.37400
N1060       N  0.94664872  0.73240710  0.56814681    -0.39800
N1061       N  0.89998329  0.74450228  0.49107871    -0.39600
N1062       N  0.95497834  0.75098199  0.44290031    -0.37200
N1063       N  0.05406818  0.82800707  0.52717999    -0.38300
N1064       N  0.99789141  0.82034171  0.57557385    -0.39900
C1065       C  0.81634773  0.65539702  0.64455200    -0.04900
C1066       C  0.81353529  0.66071786  0.66932413     0.09300
C1067       C  0.80763920  0.68102169  0.67515463    -0.02300
C1068       C  0.80570687  0.69687242  0.65637732    -0.00500
C1069       C  0.80912912  0.69216586  0.63119202    -0.04100
C1070       C  0.81387811  0.67073354  0.62553337     0.02900
C1071       C  0.81797211  0.64564121  0.68944174     0.09700
C1072       C  0.80382185  0.68572750  0.70071769     0.35600
C1073       C  0.81732600  0.66475534  0.60030725     0.39000
C1074       C  0.84300987  0.65640876  0.70088537    -0.04500
C1075       C  0.84739311  0.64227773  0.71980374     0.02700
C1076       C  0.82701094  0.61687740  0.72674788    -0.04100
C1077       C  0.80201381  0.60597607  0.71506689    -0.00300
C1078       C  0.79736469  0.62059193  0.69684349    -0.02900
C1079       C  0.86441671  0.68179072  0.69269741     0.36400
C1080       C  0.78095363  0.57976381  0.72189592     0.40000
C1081       C  0.87318851  0.65339313  0.73142236     0.39100
C1082       C  0.77136288  0.60994261  0.68572752     0.36000
C1083       C  0.82254723  0.63445237  0.63875263     0.36700
C1084       C  0.80033540  0.71805985  0.66350875     0.40000
N1085       N  0.89374081  0.66221452  0.74074011    -0.38100
N1086       N  0.88145273  0.70197649  0.68596608    -0.39700
N1087       N  0.76417976  0.55882387  0.72725436    -0.37400
N1088       N  0.75057322  0.60148182  0.67696275    -0.39800
N1089       N  0.80074531  0.68939565  0.72109687    -0.39600
N1090       N  0.79632826  0.73506124  0.66947878    -0.37200
N1091       N  0.82013054  0.65984179  0.58024559    -0.38300
N1092       N  0.82757052  0.61777888  0.63426923    -0.39900
C1093       C  0.62836162  0.68417348  0.58974268    -0.04900
C1094       C  0.64482104  0.67333398  0.58341545     0.09300
C1095       C  0.63328681  0.64632239  0.57667927    -0.02300
C1096       C  0.60552252  0.62994545  0.57728311    -0.00500
C1097       C  0.58900392  0.64044537  0.58462920    -0.04100
C1098       C  0.60049886  0.66783600  0.59016672     0.02900
C1099       C  0.67441810  0.68988539  0.58460617     0.09700
C1100       C  0.65016333  0.63517659  0.56999690     0.35600
C1101       C  0.58382559  0.67889839  0.59780315     0.39000
C1102       C  0.68799851  0.69025553  0.60629231    -0.04500
C1103       C  0.71598337  0.70281293  0.60649670     0.02700
C1104       C  0.73054213  0.71490946  0.58494057    -0.04100
C1105       C  0.71691981  0.71559099  0.56356498    -0.00300
C1106       C  0.68897795  0.70322467  0.56346740    -0.02900
C1107       C  0.67301628  0.67672120  0.62810484     0.36400
C1108       C  0.73160117  0.72869590  0.54145986     0.40000
C1109       C  0.72960415  0.70175874  0.62843854     0.39100
C1110       C  0.67507796  0.70349428  0.54138367     0.36000
C1111       C  0.64021980  0.71186233  0.59686629     0.36700
C1112       C  0.59390935  0.60211836  0.57060553     0.40000
N1113       N  0.74024734  0.70068651  0.64603585    -0.38100
N1114       N  0.66097211  0.66583541  0.64544778    -0.39700
N1115       N  0.74309482  0.73901322  0.52370342    -0.37400
N1116       N  0.66394993  0.70370540  0.52379197    -0.39800
N1117       N  0.66372264  0.62636970  0.56478771    -0.39600
N1118       N  0.58458856  0.57991104  0.56530631    -0.37200
N1119       N  0.57053932  0.68772623  0.60393079    -0.38300
N1120       N  0.64972699  0.73393311  0.60269158    -0.39900
C1121       C  0.50569598  0.66941381  0.68002273    -0.04900
C1122       C  0.53144584  0.68762467  0.68817458     0.09300
C1123       C  0.55271693  0.68293954  0.68264723    -0.02300
C1124       C  0.54859478  0.66126809  0.66756291    -0.00500
C1125       C  0.52326413  0.64457673  0.65748680    -0.04100
C1126       C  0.50168913  0.64826478  0.66436806     0.02900
C1127       C  0.53657297  0.71327013  0.69993108     0.09700
C1128       C  0.57903516  0.70104123  0.69175798     0.35600
C1129       C  0.47535053  0.63043856  0.65502556     0.39000
C1130       C  0.54014275  0.71713223  0.72557325    -0.04500
C1131       C  0.54595064  0.74186016  0.73612908     0.02700
C1132       C  0.54746041  0.76261905  0.72116303    -0.04100
C1133       C  0.54294279  0.75827690  0.69558753    -0.00300
C1134       C  0.53820649  0.73402098  0.68498862    -0.02900
C1135       C  0.53848797  0.69582892  0.74092873     0.36400
C1136       C  0.54287681  0.77873682  0.68010231     0.40000
C1137       C  0.55180754  0.74625419  0.76212624     0.39100
C1138       C  0.53603490  0.73072197  0.65847216     0.36000
C1139       C  0.48338806  0.67273308  0.68747916     0.36700
C1140       C  0.57072317  0.65712933  0.66128333     0.40000
N1141       N  0.55667584  0.74932265  0.78288178    -0.38100
N1142       N  0.53722895  0.67878463  0.75309906    -0.39700
N1143       N  0.54262882  0.79494643  0.66773513    -0.37400
N1144       N  0.53459092  0.72807658  0.63733494    -0.39800
N1145       N  0.59999124  0.71547444  0.69913066    -0.39600
N1146       N  0.58839542  0.65382858  0.65631701    -0.37200
N1147       N  0.45443488  0.61621594  0.64743103    -0.38300
N1148       N  0.46549510  0.67518123  0.69356923    -0.39900
C1149       C  0.45920449  0.47051135  0.47895707    -0.04900
C1150       C  0.48237574  0.47960389  0.49318194     0.09300
C1151       C  0.49943609  0.46895481  0.48919063    -0.02300
C1152       C  0.49330705  0.44918552  0.47113935    -0.00500
C1153       C  0.47009200  0.44005341  0.45662720    -0.04100
C1154       C  0.45318493  0.45102090  0.46061658     0.02900
C1155       C  0.48855610  0.50008511  0.51278661     0.09700
C1156       C  0.52337486  0.47844529  0.50372729     0.35600
C1157       C  0.42906629  0.44180142  0.44657100     0.39000
C1158       C  0.47991522  0.49210599  0.53713027    -0.04500
C1159       C  0.48551697  0.51126975  0.55566288     0.02700
C1160       C  0.50015321  0.53871030  0.55004656    -0.04100
C1161       C  0.50862952  0.54665323  0.52551511    -0.00300
C1162       C  0.50277251  0.52738539  0.50697119    -0.02900
C1163       C  0.46483947  0.46402652  0.54299312     0.36400
C1164       C  0.52386935  0.57464422  0.51932572     0.40000
C1165       C  0.47506609  0.50266256  0.58025704     0.39100
C1166       C  0.51123365  0.53553627  0.48182140     0.36000
C1167       C  0.44130886  0.48099179  0.48356764     0.36700
C1168       C  0.51139743  0.43878483  0.46719772     0.40000
N1169       N  0.46663955  0.49585198  0.59987650    -0.38100
N1170       N  0.45280265  0.44162926  0.54760357    -0.39700
N1171       N  0.53599579  0.59693505  0.51431501    -0.37400
N1172       N  0.51786083  0.54192368  0.46169514    -0.39800
N1173       N  0.54247887  0.48605479  0.51532611    -0.39600
N1174       N  0.52576354  0.43041886  0.46414177    -0.37200
N1175       N  0.40964732  0.43493661  0.43568492    -0.38300
N1176       N  0.42703388  0.48931383  0.48737618    -0.39900
C1177       C  0.46428260  0.30346553  0.33296183    -0.04900
C1178       C  0.43795121  0.28425195  0.32751880     0.09300
C1179       C  0.41693569  0.28902217  0.33381712    -0.02300
C1180       C  0.42215382  0.31239501  0.34656581    -0.00500
C1181       C  0.44839674  0.33088703  0.35330386    -0.04100
C1182       C  0.46949856  0.32681299  0.34569205     0.02900
C1183       C  0.43215542  0.25781522  0.31756176     0.09700
C1184       C  0.38982917  0.26910206  0.32845842     0.35600
C1185       C  0.49660874  0.34666823  0.35096012     0.39000
C1186       C  0.43023506  0.23800821  0.33394084    -0.04500
C1187       C  0.42440852  0.21284845  0.32498529     0.02700
C1188       C  0.41940388  0.20695113  0.29966084    -0.04100
C1189       C  0.42144504  0.22682059  0.28321504    -0.00300
C1190       C  0.42827453  0.25238497  0.29213703    -0.02900
C1191       C  0.43369313  0.24341083  0.36015093     0.36400
C1192       C  0.41504670  0.22055831  0.25743557     0.40000
C1193       C  0.42378431  0.19305087  0.34188478     0.39100
C1194       C  0.43103242  0.27305658  0.27529337     0.36000
C1195       C  0.48585542  0.29851584  0.32650941     0.36700
C1196       C  0.40036398  0.31669493  0.35382397     0.40000
N1197       N  0.42337080  0.17729881  0.35533002    -0.38100
N1198       N  0.43630826  0.24775127  0.38104366    -0.39700
N1199       N  0.40967447  0.21547690  0.23691384    -0.37400
N1200       N  0.43337435  0.28964251  0.26187910    -0.39800
N1201       N  0.36821343  0.25311921  0.32428894    -0.39600
N1202       N  0.38287082  0.32002497  0.35942542    -0.37200
N1203       N  0.51833655  0.36254779  0.35477446    -0.38300
N1204       N  0.50299160  0.29439893  0.32149688    -0.39900
C1205       C  0.01301954  0.18005637  0.51177215    -0.04900
C1206       C  0.00823369  0.17589232  0.48632600     0.09300
C1207       C  0.98312869  0.16964517  0.47696553    -0.02300
C1208       C  0.96299858  0.16810288  0.49292479    -0.00500
C1209       C  0.96785566  0.17284433  0.51857092    -0.04100
C1210       C  0.99314602  0.17855906  0.52779302     0.02900
C1211       C  0.03078150  0.18030540  0.46969538     0.09700
C1212       C  0.97810008  0.16484428  0.45082948     0.35600
C1213       C  0.99958446  0.18398716  0.55371633     0.39000
C1214       C  0.04034133  0.16193443  0.46940020    -0.04500
C1215       C  0.06588439  0.16951222  0.46000621     0.02700
C1216       C  0.08191115  0.19550362  0.45090108    -0.04100
C1217       C  0.07131699  0.21296597  0.44913546    -0.00300
C1218       C  0.04566940  0.20521169  0.45815951    -0.02900
C1219       C  0.02439259  0.13576145  0.48000995     0.36400
C1220       C  0.08720579  0.23935503  0.43885708     0.40000
C1221       C  0.07646864  0.15134810  0.46154958     0.39100
C1222       C  0.03501737  0.22332633  0.45661084     0.36000
C1223       C  0.03891865  0.18659664  0.52146942     0.36700
C1224       C  0.93720890  0.16102704  0.48277461     0.40000
N1225       N  0.08502066  0.13694358  0.46282898    -0.38100
N1226       N  0.01163017  0.11487831  0.48848915    -0.39700
N1227       N  0.09987877  0.26046941  0.43080943    -0.37400
N1228       N  0.02631038  0.23758747  0.45516894    -0.39800
N1229       N  0.97412013  0.16105814  0.42996607    -0.39600
N1230       N  0.91666778  0.15539664  0.47456904    -0.37200
N1231       N  0.00485567  0.18828040  0.57434428    -0.38300
N1232       N  0.05954298  0.19172441  0.52911805    -0.39900
C1233       C  0.27860075  0.27870099  0.40057149    -0.04900
C1234       C  0.29456179  0.28383263  0.42175426     0.09300
C1235       C  0.28235366  0.27342921  0.44464871    -0.02300
C1236       C  0.25447356  0.25919123  0.44657761    -0.00500
C1237       C  0.23847786  0.25594093  0.42578377    -0.04100
C1238       C  0.25065100  0.26521524  0.40263159     0.02900
C1239       C  0.32399584  0.30217995  0.42033619     0.09700
C1240       C  0.29849693  0.27807587  0.46641734     0.35600
C1241       C  0.23455147  0.26237828  0.38122534     0.39000
C1242       C  0.33375079  0.32958384  0.41666443    -0.04500
C1243       C  0.36120840  0.34700853  0.41415277     0.02700
C1244       C  0.37970356  0.33765718  0.41725335    -0.04100
C1245       C  0.36973385  0.31008585  0.42164755    -0.00300
C1246       C  0.34206242  0.29246686  0.42266341    -0.02900
C1247       C  0.31534965  0.33994318  0.41550025     0.36400
C1248       C  0.38767481  0.29928641  0.42359776     0.40000
C1249       C  0.36985475  0.37431903  0.40728801     0.39100
C1250       C  0.33205427  0.26414547  0.42555205     0.36000
C1251       C  0.29105426  0.28786304  0.37672557     0.36700
C1252       C  0.24220754  0.24775747  0.47005804     0.40000
N1253       N  0.37610624  0.39572571  0.40093966    -0.38100
N1254       N  0.30069970  0.34820383  0.41464923    -0.39700
N1255       N  0.40187423  0.29053139  0.42513490    -0.37400
N1256       N  0.32397947  0.24153489  0.42784894    -0.39800
N1257       N  0.31140583  0.28170590  0.48374968    -0.39600
N1258       N  0.23240461  0.23853508  0.48873843    -0.37200
N1259       N  0.22170612  0.26026571  0.36418122    -0.38300
N1260       N  0.30106693  0.29515429  0.35772458    -0.39900
C1261       C  0.24526522  0.43423397  0.18613373    -0.04900
C1262       C  0.26377201  0.43523890  0.20360236     0.09300
C1263       C  0.25609733  0.42933689  0.22849975    -0.02300
C1264       C  0.22976024  0.42152528  0.23570980    -0.00500
C1265       C  0.21114538  0.41999448  0.21808633    -0.04100
C1266       C  0.21911574  0.42672362  0.19333285     0.02900
C1267       C  0.29069172  0.44086145  0.19500118     0.09700
C1268       C  0.27519432  0.43084249  0.24653887     0.35600
C1269       C  0.20031021  0.42572941  0.17512621     0.39000
C1270       C  0.31000925  0.46700280  0.18871407    -0.04500
C1271       C  0.33281198  0.47152246  0.17534594     0.02700
C1272       C  0.33662443  0.44995727  0.16857585    -0.04100
C1273       C  0.31845633  0.42409415  0.17675544    -0.00300
C1274       C  0.29548087  0.41955407  0.18983758    -0.02900
C1275       C  0.30582511  0.48907837  0.19520796     0.36400
C1276       C  0.32239691  0.40186263  0.17020644     0.40000
C1277       C  0.35211826  0.49830650  0.16804871     0.39100
C1278       C  0.27597155  0.39273236  0.19679457     0.36000
C1279       C  0.25300110  0.44024786  0.16050981     0.36700
C1280       C  0.22136947  0.41347835  0.26089405     0.40000
N1281       N  0.36756662  0.51964408  0.16220475    -0.38100
N1282       N  0.30245626  0.50666873  0.20044830    -0.39700
N1283       N  0.32550273  0.38410403  0.16498254    -0.37400
N1284       N  0.26036466  0.37137046  0.20240175    -0.39800
N1285       N  0.29045714  0.43206986  0.26094854    -0.39600
N1286       N  0.21450180  0.40681582  0.28091169    -0.37200
N1287       N  0.18534107  0.42489337  0.16057014    -0.38300
N1288       N  0.25925746  0.44506533  0.14010601    -0.39900
C1289       C  0.12749897  0.27706985  0.35308084    -0.04900
C1290       C  0.14683404  0.30391790  0.35000695     0.09300
C1291       C  0.16867110  0.31559125  0.36613990    -0.02300
C1292       C  0.17173700  0.30016671  0.38471086    -0.00500
C1293       C  0.15276451  0.27299738  0.38736983    -0.04100
C1294       C  0.13040265  0.26164618  0.37164538     0.02900
C1295       C  0.14441997  0.31955475  0.32918053     0.09700
C1296       C  0.18803287  0.34346518  0.36343257     0.35600
C1297       C  0.11004833  0.23412598  0.37472819     0.39000
C1298       C  0.12933572  0.33257829  0.33201268    -0.04500
C1299       C  0.12570782  0.34591451  0.31190010     0.02700
C1300       C  0.13768294  0.34681940  0.28887630    -0.04100
C1301       C  0.15297096  0.33387976  0.28617638    -0.00300
C1302       C  0.15630632  0.32031749  0.30627740    -0.02900
C1303       C  0.11784376  0.33248448  0.35578887     0.36400
C1304       C  0.16611848  0.33529972  0.26301364     0.40000
C1305       C  0.10897507  0.35804006  0.31479059     0.39100
C1306       C  0.17238085  0.30746720  0.30359544     0.36000
C1307       C  0.10458531  0.26532150  0.33700008     0.36700
C1308       C  0.19506928  0.31197023  0.40023334     0.40000
N1309       N  0.09556679  0.36763681  0.31707432    -0.38100
N1310       N  0.10887346  0.33253565  0.37482966    -0.39700
N1311       N  0.17659806  0.33645715  0.24452441    -0.37400
N1312       N  0.18531204  0.29731744  0.30157518    -0.39800
N1313       N  0.20337021  0.36574917  0.36125279    -0.39600
N1314       N  0.21374342  0.32136483  0.41255189    -0.37200
N1315       N  0.09383953  0.21217666  0.37715609    -0.38300
N1316       N  0.08629354  0.25603646  0.32420242    -0.39900
C1317       C  0.95401935  0.31271701  0.23170613    -0.04900
C1318       C  0.97012688  0.32678963  0.25189970     0.09300
C1319       C  0.95816861  0.32761221  0.27428124    -0.02300
C1320       C  0.93035123  0.31333846  0.27687502    -0.00500
C1321       C  0.91420703  0.29859376  0.25690913    -0.04100
C1322       C  0.92611284  0.29893282  0.23409799     0.02900
C1323       C  0.99971163  0.33925227  0.25015839     0.09700
C1324       C  0.97460766  0.34260427  0.29486300     0.35600
C1325       C  0.90974823  0.28401601  0.21346073     0.39000
C1326       C  0.01554033  0.36676240  0.24578287    -0.04500
C1327       C  0.04339326  0.37825307  0.24389009     0.02700
C1328       C  0.05557980  0.36225383  0.24641000    -0.04100
C1329       C  0.03968479  0.33479995  0.25139604    -0.00300
C1330       C  0.01190132  0.32337680  0.25318571    -0.02900
C1331       C  0.00303280  0.38309863  0.24276931     0.36400
C1332       C  0.05194608  0.31828917  0.25510306     0.40000
C1333       C  0.05934663  0.40628631  0.23820598     0.39100
C1334       C  0.99572731  0.29515632  0.25802135     0.36000
C1335       C  0.96628732  0.31168653  0.20873605     0.36700
C1336       C  0.91835931  0.31367763  0.30025010     0.40000
N1337       N  0.07211182  0.42863578  0.23361411    -0.38100
N1338       N  0.99298837  0.39608917  0.24039183    -0.39700
N1339       N  0.06174532  0.30514893  0.25806805    -0.37400
N1340       N  0.98276539  0.27264183  0.26178680    -0.39800
N1341       N  0.98776004  0.35467108  0.31122387    -0.39600
N1342       N  0.90895726  0.31401132  0.31896399    -0.37200
N1343       N  0.89668775  0.27213101  0.19698172    -0.38300
N1344       N  0.97616166  0.31075801  0.19049525    -0.39900
C1345       C  0.88667638  0.39160080  0.36009991    -0.04900
C1346       C  0.86069460  0.37132975  0.36492828     0.09300
C1347       C  0.84406846  0.37657481  0.38015599    -0.02300
C1348       C  0.85266437  0.40252329  0.38923473    -0.00500
C1349       C  0.87833807  0.42371324  0.38314713    -0.04100
C1350       C  0.89562863  0.41748399  0.36926599     0.02900
C1351       C  0.85020518  0.34534526  0.35167312     0.09700
C1352       C  0.81774446  0.35514096  0.38597379     0.35600
C1353       C  0.92280409  0.43739779  0.36388207     0.39000
C1354       C  0.85638944  0.32577126  0.35961942    -0.04500
C1355       C  0.85017943  0.30334588  0.34471509     0.02700
C1356       C  0.83822352  0.30070135  0.32126424    -0.04100
C1357       C  0.82929275  0.31905963  0.31496136    -0.00300
C1358       C  0.83562326  0.34132400  0.32992346    -0.02900
C1359       C  0.86966358  0.32911402  0.38301244     0.36400
C1360       C  0.81352742  0.31555853  0.29309629     0.40000
C1361       C  0.85638640  0.28337626  0.35378282     0.39100
C1362       C  0.82783228  0.36074205  0.32250855     0.36000
C1363       C  0.90403386  0.38590860  0.34490848     0.36700
C1364       C  0.83447729  0.40703207  0.40425221     0.40000
N1365       N  0.86123648  0.26744201  0.36125658    -0.38100
N1366       N  0.88020988  0.33183443  0.40170938    -0.39700
N1367       N  0.80108121  0.31313262  0.27566962    -0.37400
N1368       N  0.82156137  0.37617019  0.31664966    -0.39800
N1369       N  0.79680505  0.33793156  0.39053755    -0.39600
N1370       N  0.81976924  0.41034763  0.41625870    -0.37200
N1371       N  0.94442619  0.45305474  0.35923642    -0.38300
N1372       N  0.91786545  0.38136574  0.33282712    -0.39900
C1373       C  0.81246526  0.12138005  0.15936066    -0.04900
C1374       C  0.82775332  0.14882663  0.15451469     0.09300
C1375       C  0.83886820  0.15751449  0.13091033    -0.02300
C1376       C  0.83445061  0.13880086  0.11216098    -0.00500
C1377       C  0.81845115  0.11129452  0.11680851    -0.04100
C1378       C  0.80761153  0.10270777  0.14060092     0.02900
C1379       C  0.83081821  0.16825820  0.17426003     0.09700
C1380       C  0.85486223  0.18569925  0.12595525     0.35600
C1381       C  0.79092126  0.07462654  0.14580493     0.39000
C1382       C  0.85441784  0.18130713  0.18810836    -0.04500
C1383       C  0.85598263  0.19736013  0.20840207     0.02700
C1384       C  0.83378792  0.20006088  0.21514133    -0.04100
C1385       C  0.81023116  0.18701772  0.20118086    -0.00300
C1386       C  0.80896857  0.17167114  0.18055282    -0.02900
C1387       C  0.87702825  0.17814279  0.18145914     0.36400
C1388       C  0.78685714  0.18856044  0.20857797     0.40000
C1389       C  0.88062262  0.21166729  0.22187622     0.39100
C1390       C  0.78508410  0.15922837  0.16573852     0.36000
C1391       C  0.80164627  0.11239178  0.18381769     0.36700
C1392       C  0.84736639  0.14781704  0.08846396     0.40000
N1393       N  0.90032234  0.22318575  0.23255936    -0.38100
N1394       N  0.89509423  0.17569433  0.17603302    -0.39700
N1395       N  0.76818053  0.18964042  0.21458846    -0.37400
N1396       N  0.76611200  0.14933711  0.15383314    -0.39800
N1397       N  0.86772652  0.20818534  0.12199643    -0.39600
N1398       N  0.85777556  0.15490449  0.06959057    -0.37200
N1399       N  0.77766304  0.05225460  0.15004130    -0.38300
N1400       N  0.79306661  0.10540697  0.20335047    -0.39900
C1401       C  0.76795730  0.90413106  0.00173979    -0.04900
C1402       C  0.77582804  0.92423885  0.98380431     0.09300
C1403       C  0.77502908  0.91779241  0.95870388    -0.02300
C1404       C  0.76528634  0.89109198  0.95143539    -0.00500
C1405       C  0.75662974  0.87071373  0.96936403    -0.04100
C1406       C  0.75822261  0.87748651  0.99461522     0.02900
C1407       C  0.78390096  0.95199856  0.99172264     0.09700
C1408       C  0.78432101  0.93875066  0.94043883     0.35600
C1409       C  0.75002615  0.85713188  0.01346481     0.39000
C1410       C  0.80990406  0.96880136  0.00007725    -0.04500
C1411       C  0.81609053  0.99279952  0.01209846     0.02700
C1412       C  0.79631007  0.00018822  0.01566051    -0.04100
C1413       C  0.77083029  0.98436876  0.00552939    -0.00300
C1414       C  0.76467058  0.96030704  0.99356373    -0.02900
C1415       C  0.82998210  0.96083676  0.99708388     0.36400
C1416       C  0.75034992  0.99171889  0.00906066     0.40000
C1417       C  0.84267651  0.00961507  0.02140334     0.39100
C1418       C  0.73817516  0.94339425  0.98414843     0.36000
C1419       C  0.77002540  0.91097893  0.02765197     0.36700
C1420       C  0.76288754  0.88455510  0.92547171     0.40000
N1421       N  0.86383068  0.02306986  0.02890390    -0.38100
N1422       N  0.84599326  0.95447148  0.99463990    -0.39700
N1423       N  0.73396828  0.99751025  0.01193118    -0.37400
N1424       N  0.71708422  0.92985244  0.97655558    -0.39800
N1425       N  0.79193918  0.95558614  0.92595302    -0.39600
N1426       N  0.76084992  0.87934787  0.90474498    -0.37200
N1427       N  0.74330978  0.84089381  0.02848928    -0.38300
N1428       N  0.77190112  0.91651645  0.04829370    -0.39900
C1429       C  0.39451590  0.88816700  0.13394771    -0.04900
C1430       C  0.37951940  0.86261064  0.14426110     0.09300
C1431       C  0.38957655  0.84467201  0.14344428    -0.02300
C1432       C  0.41531431  0.85289614  0.13413723    -0.00500
C1433       C  0.43116974  0.87917285  0.12559826    -0.04100
C1434       C  0.42020999  0.89642394  0.12462279     0.02900
C1435       C  0.35587882  0.85654669  0.16008532     0.09700
C1436       C  0.37398450  0.81824748  0.15365013     0.35600
C1437       C  0.43560705  0.92297641  0.11451555     0.39000
C1438       C  0.32991273  0.84443121  0.15046810    -0.04500
C1439       C  0.30805009  0.83874165  0.16606325     0.02700
C1440       C  0.31210711  0.84547777  0.19137502    -0.04100
C1441       C  0.33839365  0.85830725  0.20065335    -0.00300
C1442       C  0.35996103  0.86345141  0.18517948    -0.02900
C1443       C  0.32578400  0.83787833  0.12454132     0.36400
C1444       C  0.34366670  0.86738808  0.22598023     0.40000
C1445       C  0.28140497  0.82525225  0.15613627     0.39100
C1446       C  0.38667639  0.87611429  0.19508073     0.36000
C1447       C  0.38402599  0.90646700  0.13427466     0.36700
C1448       C  0.42621729  0.83499040  0.13517896     0.40000
N1449       N  0.26013632  0.81437167  0.14822879    -0.38100
N1450       N  0.32248950  0.83272321  0.10381303    -0.39700
N1451       N  0.34795830  0.87470400  0.24614636    -0.37400
N1452       N  0.40801050  0.88615178  0.20282632    -0.39800
N1453       N  0.36148043  0.79719630  0.16186455    -0.39600
N1454       N  0.43502481  0.82078262  0.13611500    -0.37200
N1455       N  0.44781029  0.94416100  0.10647593    -0.38300
N1456       N  0.37562432  0.92103935  0.13463098    -0.39900
C1457       C  0.51057242  0.99221279  0.03261720    -0.04900
C1458       C  0.48722265  0.97832713  0.01852456     0.09300
C1459       C  0.46842110  0.95213784  0.02517188    -0.02300
C1460       C  0.47330231  0.93957937  0.04517142    -0.00500
C1461       C  0.49706223  0.95313024  0.05886934    -0.04100
C1462       C  0.51538231  0.97974288  0.05286363     0.02900
C1463       C  0.48221763  0.99117875  0.99666578     0.09700
C1464       C  0.44404615  0.93799682  0.01123777     0.35600
C1465       C  0.53957293  0.99402013  0.06696918     0.39000
C1466       C  0.49537464  0.99341741  0.97412199    -0.04500
C1467       C  0.49034640  0.00517405  0.95348093     0.02700
C1468       C  0.47175006  0.01437233  0.95510665    -0.04100
C1469       C  0.45812445  0.01150674  0.97752427    -0.00300
C1470       C  0.46368156  0.00039806  0.99830003    -0.02900
C1471       C  0.51442261  0.98396479  0.97230793     0.36400
C1472       C  0.43791021  0.01947532  0.97908299     0.40000
C1473       C  0.50525293  0.00892983  0.93093311     0.39100
C1474       C  0.45073191  0.99891763  0.02159312     0.36000
C1475       C  0.52977164  0.01925157  0.02602899     0.36700
C1476       C  0.45351154  0.91273944  0.05189449     0.40000
N1477       N  0.51720318  0.01206477  0.91296188    -0.38100
N1478       N  0.52971642  0.97653607  0.97091920    -0.39700
N1479       N  0.42166643  0.02566953  0.98025167    -0.37400
N1480       N  0.44055259  0.99779719  0.04024955    -0.39800
N1481       N  0.42454659  0.92680880  0.00020987    -0.39600
N1482       N  0.43770460  0.89135282  0.05723687    -0.37200
N1483       N  0.55882926  0.00543535  0.07829687    -0.38300
N1484       N  0.54510590  0.04078093  0.02060522    -0.39900
C1485       C  0.68831159  0.97082096  0.08241842    -0.04900
C1486       C  0.67357878  0.98409582  0.08654642     0.09300
C1487       C  0.68696012  0.01204055  0.08844978    -0.02300
C1488       C  0.71480709  0.02666284  0.08615370    -0.00500
C1489       C  0.72969626  0.01350150  0.08186586    -0.04100
C1490       C  0.71628471  0.98543139  0.08020060     0.02900
C1491       C  0.64400656  0.96885324  0.08997868     0.09700
C1492       C  0.67188749  0.02576441  0.09253405     0.35600
C1493       C  0.73108187  0.97162978  0.07510353     0.39000
C1494       C  0.63331057  0.96217670  0.11390429    -0.04500
C1495       C  0.60568530  0.95042046  0.11770319     0.02700
C1496       C  0.58825713  0.94439371  0.09744027    -0.04100
C1497       C  0.59901895  0.95093142  0.07342285    -0.00300
C1498       C  0.62678094  0.96318232  0.06973925    -0.02900
C1499       C  0.65094473  0.96781815  0.13470884     0.36400
C1500       C  0.58169849  0.94673270  0.05265885     0.40000
C1501       C  0.59530819  0.94447551  0.14260737     0.39100
C1502       C  0.63776915  0.97068952  0.04518874     0.36000
C1503       C  0.67455098  0.94214800  0.07993737     0.36700
C1504       C  0.72817938  0.05538234  0.08848974     0.40000
N1505       N  0.58710332  0.93983008  0.16249470    -0.38100
N1506       N  0.66510620  0.97232555  0.15122047    -0.39700
N1507       N  0.56784384  0.94358338  0.03616752    -0.37400
N1508       N  0.64659605  0.97676874  0.02561318    -0.39800
N1509       N  0.65974186  0.03659251  0.09572727    -0.39600
N1510       N  0.73886834  0.07828531  0.09030407    -0.37200
N1511       N  0.74289000  0.96062046  0.07100110    -0.38300
N1512       N  0.66352001  0.91927063  0.07782024    -0.39900
C1513       C  0.78389850  0.75582555  0.02386270    -0.04900
C1514       C  0.80967085  0.77729706  0.02785030     0.09300
C1515       C  0.81570084  0.80308563  0.02033983    -0.02300
C1516       C  0.79683969  0.80701245  0.00721034    -0.00500
C1517       C  0.77172811  0.78522156  0.00172738    -0.04100
C1518       C  0.76489825  0.75982523  0.01102798     0.02900
C1519       C  0.83101007  0.77221861  0.03785556     0.09700
C1520       C  0.84162355  0.82542809  0.02551615     0.35600
C1521       C  0.73879852  0.73753186  0.00626650     0.39000
C1522       C  0.84974226  0.77145407  0.02162624    -0.04500
C1523       C  0.86818720  0.76403866  0.03029357     0.02700
C1524       C  0.86789451  0.75694499  0.05523702    -0.04100
C1525       C  0.84990133  0.75878614  0.07171697    -0.00300
C1526       C  0.83176330  0.76676878  0.06307957    -0.02900
C1527       C  0.84973113  0.77787073  0.99582204     0.36400
C1528       C  0.84897066  0.75101337  0.09720432     0.40000
C1529       C  0.88756666  0.76371917  0.01344568     0.39100
C1530       C  0.81372044  0.76928056  0.08003621     0.36000
C1531       C  0.77733944  0.72935890  0.03198197     0.36700
C1532       C  0.80328222  0.83348449  0.99915060     0.40000
N1533       N  0.90304041  0.76348434  0.00004262    -0.38100
N1534       N  0.84979699  0.78313647  0.97527705    -0.39700
N1535       N  0.84803259  0.74460139  0.11751150    -0.37400
N1536       N  0.79936933  0.77149479  0.09348714    -0.39800
N1537       N  0.86233714  0.84323596  0.02963043    -0.39600
N1538       N  0.80831249  0.85458438  0.99278229    -0.37200
N1539       N  0.71795300  0.71975776  0.00251655    -0.38300
N1540       N  0.77213999  0.70826596  0.03851629    -0.39900
C1541       C  0.00586557  0.78296395  0.99583502    -0.04900
C1542       C  0.01508813  0.81059148  0.99673487     0.09300
C1543       C  0.00026827  0.82015118  0.00971444    -0.02300
C1544       C  0.97731274  0.80237722  0.02292032    -0.00500
C1545       C  0.96940654  0.77495207  0.02383018    -0.04100
C1546       C  0.98329707  0.76522033  0.00950492     0.02900
C1547       C  0.04194893  0.82965612  0.98648515     0.09700
C1548       C  0.00930134  0.84844358  0.01031258     0.35600
C1549       C  0.97562843  0.73722502  0.01017509     0.39000
C1550       C  0.04474214  0.84331261  0.96423591    -0.04500
C1551       C  0.07026439  0.86110344  0.95480112     0.02700
C1552       C  0.09351258  0.86494136  0.96728473    -0.04100
C1553       C  0.09026337  0.85145831  0.99014176    -0.00300
C1554       C  0.06476495  0.83411844  0.99951897    -0.02900
C1555       C  0.02116868  0.83880227  0.95095293     0.36400
C1556       C  0.11291481  0.85563123  0.00487261     0.40000
C1557       C  0.07212517  0.87530009  0.93225520     0.39100
C1558       C  0.06193795  0.82084071  0.02293915     0.36000
C1559       C  0.02036178  0.77294353  0.98159907     0.36700
C1560       C  0.96182790  0.81236368  0.03560243     0.40000
N1561       N  0.07326939  0.88668184  0.91436305    -0.38100
N1562       N  0.00229908  0.83516294  0.94044725    -0.39700
N1563       N  0.13077881  0.85874905  0.01679054    -0.37400
N1564       N  0.05974998  0.81027322  0.04157407    -0.39800
N1565       N  0.01654079  0.87102521  0.01075158    -0.39600
N1566       N  0.94939064  0.82028992  0.04561517    -0.37200
N1567       N  0.96954150  0.71490557  0.01083902    -0.38300
N1568       N  0.03195694  0.76497314  0.97024697    -0.39900
C1569       C  0.10841239  0.50789374  0.16092265    -0.04900
C1570       C  0.12084920  0.49889940  0.14412930     0.09300
C1571       C  0.12563378  0.50866616  0.11984893    -0.02300
C1572       C  0.11705951  0.52669290  0.11205387    -0.00500
C1573       C  0.10348849  0.53503241  0.12861956    -0.04100
C1574       C  0.09931880  0.52534875  0.15324072     0.02900
C1575       C  0.12737697  0.47798571  0.15235274     0.09700
C1576       C  0.13929365  0.49997434  0.10293430     0.35600
C1577       C  0.08503489  0.53251290  0.17095584     0.39000
C1578       C  0.10788706  0.45093662  0.15079484    -0.04500
C1579       C  0.11051104  0.43162786  0.16464161     0.02700
C1580       C  0.13261198  0.43943561  0.18023607    -0.04100
C1581       C  0.15344168  0.46607757  0.17960102    -0.00300
C1582       C  0.15076748  0.48529115  0.16575094    -0.02900
C1583       C  0.08428529  0.44334073  0.13621094     0.36400
C1584       C  0.17740341  0.47388460  0.19374059     0.40000
C1585       C  0.08952551  0.40418779  0.16420257     0.39100
C1586       C  0.17134136  0.51289903  0.16644975     0.36000
C1587       C  0.10481759  0.49891015  0.18632876     0.36700
C1588       C  0.12098982  0.53531389  0.08661571     0.40000
N1589       N  0.07277880  0.38228818  0.16378865    -0.38100
N1590       N  0.06548459  0.43740614  0.12456096    -0.39700
N1591       N  0.19647166  0.48002397  0.20504201    -0.37400
N1592       N  0.18774687  0.53493457  0.16703795    -0.39800
N1593       N  0.15030832  0.49305782  0.08954268    -0.39600
N1594       N  0.12410693  0.54204099  0.06625698    -0.37200
N1595       N  0.07312153  0.53749855  0.18511515    -0.38300
N1596       N  0.10219388  0.49188029  0.20657876    -0.39900
C1597       C  0.02610382  0.65563729  0.07164321    -0.04900
C1598       C  0.01676711  0.66253082  0.09298600     0.09300
C1599       C  0.02354691  0.65695410  0.11630301    -0.02300
C1600       C  0.03792208  0.64306833  0.11827180    -0.00500
C1601       C  0.04517926  0.63393511  0.09689829    -0.04100
C1602       C  0.04055134  0.64171184  0.07359780     0.02900
C1603       C  0.99894877  0.67471334  0.09105953     0.09700
C1604       C  0.01514618  0.66500007  0.13837092     0.35600
C1605       C  0.05021812  0.63519050  0.05154003     0.39000
C1606       C  0.97163663  0.65928210  0.09655119    -0.04500
C1607       C  0.95472219  0.67046697  0.09480381     0.02700
C1608       C  0.96488273  0.69722398  0.08755207    -0.04100
C1609       C  0.99221839  0.71274483  0.08221541    -0.00300
C1610       C  0.00918483  0.70155957  0.08402794    -0.02900
C1611       C  0.96084339  0.63168596  0.10373272     0.36400
C1612       C  0.00266998  0.73987226  0.07373180     0.40000
C1613       C  0.92676936  0.65442576  0.10062461     0.39100
C1614       C  0.03715798  0.71756476  0.07836855     0.36000
C1615       C  0.02008166  0.66212416  0.04758545     0.36700
C1616       C  0.04588093  0.63885491  0.14244526     0.40000
N1617       N  0.90446495  0.64168459  0.10524432    -0.38100
N1618       N  0.95228902  0.60970734  0.10955860    -0.39700
N1619       N  0.01093295  0.76148022  0.06687098    -0.37400
N1620       N  0.05945843  0.73021500  0.07369598    -0.39800
N1621       N  0.00825829  0.67121768  0.15596966    -0.39600
N1622       N  0.05236936  0.63568785  0.16170886    -0.37200
N1623       N  0.05816554  0.63061362  0.03370170    -0.38300
N1624       N  0.01537404  0.66739044  0.02837911    -0.39900
C1625       C  0.14442260  0.66046546  0.19441098    -0.04900
C1626       C  0.15262018  0.68616558  0.18517198     0.09300
C1627       C  0.14342999  0.68932019  0.16213825    -0.02300
C1628       C  0.12690000  0.66690848  0.14792323    -0.00500
C1629       C  0.11917646  0.64100148  0.15676149    -0.04100
C1630       C  0.12773085  0.63788194  0.18023288     0.02900
C1631       C  0.17201526  0.71016814  0.19901796     0.09700
C1632       C  0.15130948  0.71578675  0.15292005     0.35600
C1633       C  0.12085802  0.61171343  0.18930721     0.39000
C1634       C  0.19908907  0.72286890  0.19244216    -0.04500
C1635       C  0.21700434  0.74732533  0.20331235     0.02700
C1636       C  0.20792763  0.75891960  0.22104998    -0.04100
C1637       C  0.18124821  0.74526227  0.22884944    -0.00300
C1638       C  0.16319003  0.72115549  0.21753470    -0.02900
C1639       C  0.20822147  0.71113361  0.17382673     0.36400
C1640       C  0.17241285  0.75589820  0.24866302     0.40000
C1641       C  0.24457727  0.76091682  0.19571680     0.39100
C1642       C  0.13534273  0.70820456  0.22416434     0.36000
C1643       C  0.15377440  0.65742874  0.21827308     0.36700
C1644       C  0.11801769  0.67074036  0.12406293     0.40000
N1645       N  0.26657735  0.77158804  0.18964362    -0.38100
N1646       N  0.21533115  0.70165812  0.15893941    -0.39700
N1647       N  0.16522025  0.76385462  0.26480837    -0.37400
N1648       N  0.11308873  0.69793295  0.22933660    -0.39800
N1649       N  0.15757092  0.73685314  0.14554081    -0.39600
N1650       N  0.11128494  0.67411971  0.10499744    -0.37200
N1651       N  0.11595960  0.59114077  0.19702745    -0.38300
N1652       N  0.16129631  0.65517930  0.23735670    -0.39900
C1653       C  0.54610473  0.84257190  0.17127205    -0.04900
C1654       C  0.52634113  0.82594076  0.18815168     0.09300
C1655       C  0.50440149  0.82997817  0.19240924    -0.02300
C1656       C  0.50184770  0.84980066  0.17915705    -0.00500
C1657       C  0.52037670  0.86458780  0.16059727    -0.04100
C1658       C  0.54258366  0.86090636  0.15683098     0.02900
C1659       C  0.52821955  0.80315457  0.19970228     0.09700
C1660       C  0.48404617  0.81315060  0.20976681     0.35600
C1661       C  0.56141864  0.87515051  0.13736313     0.39000
C1662       C  0.53577020  0.80408308  0.22455249    -0.04500
C1663       C  0.54169863  0.78465519  0.23392352     0.02700
C1664       C  0.54113639  0.76482195  0.21824969    -0.04100
C1665       C  0.53247979  0.76323867  0.19371501    -0.00300
C1666       C  0.52527728  0.78180043  0.18474952    -0.02900
C1667       C  0.53837209  0.82556937  0.24020961     0.36400
C1668       C  0.53146138  0.74276970  0.17746951     0.40000
C1669       C  0.54963535  0.78583333  0.25937050     0.39100
C1670       C  0.51520120  0.77922866  0.15989872     0.36000
C1671       C  0.57004091  0.84052533  0.16855555     0.36700
C1672       C  0.47961380  0.85423170  0.18388444     0.40000
N1673       N  0.55587548  0.78666167  0.27970279    -0.38100
N1674       N  0.54033780  0.84268751  0.25271473    -0.39700
N1675       N  0.53082083  0.72659928  0.16441543    -0.37400
N1676       N  0.50699770  0.77711357  0.14014126    -0.39800
N1677       N  0.46781315  0.79970368  0.22365215    -0.39600
N1678       N  0.46198860  0.85793914  0.18778801    -0.37200
N1679       N  0.57643275  0.88593099  0.12166987    -0.38300
N1680       N  0.58919808  0.83900211  0.16658576    -0.39900
C1681       C  0.45912321  0.56668435  0.17075366    -0.04900
C1682       C  0.47232160  0.58732743  0.15351951     0.09300
C1683       C  0.46800958  0.58172934  0.12815078    -0.02300
C1684       C  0.45076037  0.55551076  0.12003233    -0.00500
C1685       C  0.43751825  0.53474862  0.13730867    -0.04100
C1686       C  0.44171877  0.54060248  0.16276083     0.02900
C1687       C  0.49138768  0.61469871  0.16255066     0.09700
C1688       C  0.48176426  0.60291917  0.11046128     0.35600
C1689       C  0.42794235  0.51986266  0.18091648     0.39000
C1690       C  0.51851560  0.62248436  0.16504738    -0.04500
C1691       C  0.53562174  0.64589664  0.17802601     0.02700
C1692       C  0.52562822  0.66170287  0.18856864    -0.04100
C1693       C  0.49882415  0.65473889  0.18463337    -0.00300
C1694       C  0.48182281  0.63139385  0.17158628    -0.02900
C1695       C  0.52844951  0.60556040  0.15534336     0.36400
C1696       C  0.48852125  0.67126473  0.19459494     0.40000
C1697       C  0.56290291  0.65238025  0.18225870     0.39100
C1698       C  0.45416764  0.62393211  0.16828144     0.36000
C1699       C  0.46392831  0.57229112  0.19685100     0.36700
C1700       C  0.44781547  0.54970966  0.09390826     0.40000
N1701       N  0.58460564  0.65738758  0.18572650    -0.38100
N1702       N  0.53625740  0.59198534  0.14754297    -0.39700
N1703       N  0.48036788  0.68445720  0.20262885    -0.37400
N1704       N  0.43210042  0.61800943  0.16566357    -0.39800
N1705       N  0.49282625  0.61987225  0.09638182    -0.39600
N1706       N  0.44558551  0.54503701  0.07306841    -0.37200
N1707       N  0.41703982  0.50333084  0.19541375    -0.38300
N1708       N  0.46789940  0.57686871  0.21761983    -0.39900
C1709       C  0.79918603  0.52169669  0.28016056    -0.04900
C1710       C  0.79884363  0.51501707  0.30523305     0.09300
C1711       C  0.77783113  0.51236031  0.32041374    -0.02300
C1712       C  0.75811626  0.51753506  0.31098250    -0.00500
C1713       C  0.75954044  0.52626273  0.28647402    -0.04100
C1714       C  0.77955661  0.52729645  0.27078105     0.02900
C1715       C  0.82087548  0.51166957  0.31631658     0.09700
C1716       C  0.77707113  0.50532153  0.34613829     0.35600
C1717       C  0.78056857  0.53497356  0.24528117     0.39000
C1718       C  0.84517256  0.53422316  0.32260081    -0.04500
C1719       C  0.86412101  0.53140110  0.33681809     0.02700
C1720       C  0.85833238  0.50618639  0.34590193    -0.04100
C1721       C  0.83479431  0.48348540  0.33834154    -0.00300
C1722       C  0.81634055  0.48619053  0.32329643    -0.02900
C1723       C  0.84992517  0.56050391  0.31579064     0.36400
C1724       C  0.82947821  0.45731142  0.34623402     0.40000
C1725       C  0.88906223  0.55461581  0.34302952     0.39100
C1726       C  0.79208751  0.46285065  0.31581051     0.36000
C1727       C  0.82015694  0.52349892  0.26424544     0.36700
C1728       C  0.73615066  0.51375724  0.32659304     0.40000
N1729       N  0.90905720  0.57312386  0.34780272    -0.38100
N1730       N  0.85359221  0.58146061  0.31046096    -0.39700
N1731       N  0.82525427  0.43640608  0.35243457    -0.37400
N1732       N  0.77268026  0.44428866  0.30983179    -0.39800
N1733       N  0.77652173  0.49973882  0.36665198    -0.39600
N1734       N  0.71852826  0.51041934  0.33904046    -0.37200
N1735       N  0.78156703  0.54090708  0.22482661    -0.38300
N1736       N  0.83695494  0.52501341  0.25156780    -0.39900
C1737       C  0.80158109  0.64847082  0.20335211    -0.04900
C1738       C  0.80469303  0.63618193  0.18210637     0.09300
C1739       C  0.78858142  0.60861322  0.17900199    -0.02300
C1740       C  0.76908436  0.59336050  0.19666868    -0.00500
C1741       C  0.76594980  0.60539974  0.21847349    -0.04100
C1742       C  0.78239527  0.63328911  0.22142602     0.02900
C1743       C  0.82485020  0.65215188  0.16272361     0.09700
C1744       C  0.79256007  0.59578657  0.15764688     0.35600
C1745       C  0.77921355  0.64685078  0.24256332     0.39000
C1746       C  0.85185535  0.65982568  0.16614705    -0.04500
C1747       C  0.87066275  0.67415160  0.14761805     0.02700
C1748       C  0.86252519  0.68045594  0.12525703    -0.04100
C1749       C  0.83542456  0.67240164  0.12168888    -0.00300
C1750       C  0.81673205  0.65853674  0.14042211    -0.02900
C1751       C  0.86017969  0.65263446  0.18868402     0.36400
C1752       C  0.82686258  0.67918844  0.09904461     0.40000
C1753       C  0.89833959  0.68188380  0.15136353     0.39100
C1754       C  0.78909522  0.65103488  0.13687478     0.36000
C1755       C  0.81830061  0.67688264  0.20657796     0.36700
C1756       C  0.75256256  0.56515751  0.19197521     0.40000
N1757       N  0.92041965  0.68804382  0.15434915    -0.38100
N1758       N  0.86671189  0.64683179  0.20669677    -0.39700
N1759       N  0.82009721  0.68463945  0.08097061    -0.37400
N1760       N  0.76704497  0.64506437  0.13403469    -0.39800
N1761       N  0.79588331  0.58562116  0.14068431    -0.39600
N1762       N  0.73935104  0.54273127  0.18792720    -0.37200
N1763       N  0.77677989  0.65783724  0.25935083    -0.38300
N1764       N  0.83178758  0.69953473  0.20913301    -0.39900
C1765       C  0.63862238  0.60775207  0.28269244    -0.04900
C1766       C  0.63176640  0.61395757  0.25974369     0.09300
C1767       C  0.63859907  0.60531627  0.23796048    -0.02300
C1768       C  0.65408651  0.59243726  0.23905087    -0.00500
C1769       C  0.66295174  0.58824223  0.26199596    -0.04100
C1770       C  0.65425269  0.59513409  0.28388400     0.02900
C1771       C  0.61979884  0.63192693  0.25859859     0.09700
C1772       C  0.63013510  0.61024624  0.21439004     0.35600
C1773       C  0.66117845  0.58915562  0.30780889     0.39000
C1774       C  0.63625283  0.65957103  0.26168215    -0.04500
C1775       C  0.62547592  0.67684465  0.26061923     0.02700
C1776       C  0.59826790  0.66678674  0.25551102    -0.04100
C1777       C  0.58171610  0.63905069  0.25261099    -0.00300
C1778       C  0.59238679  0.62165507  0.25467254    -0.02900
C1779       C  0.66449395  0.67030478  0.26548161     0.36400
C1780       C  0.55408587  0.62851085  0.24599581     0.40000
C1781       C  0.64241489  0.70504437  0.26503263     0.39100
C1782       C  0.57525440  0.59319141  0.25263174     0.36000
C1783       C  0.62968356  0.61464472  0.30511041     0.36700
C1784       C  0.66193547  0.58474554  0.21648077     0.40000
N1785       N  0.65583945  0.72752343  0.26864121    -0.38100
N1786       N  0.68702160  0.67880058  0.26841093    -0.39700
N1787       N  0.53211215  0.62012864  0.24046521    -0.37400
N1788       N  0.56159046  0.57045136  0.25113869    -0.39800
N1789       N  0.62316799  0.61403500  0.19562329    -0.39600
N1790       N  0.66818201  0.57855221  0.19847633    -0.37200
N1791       N  0.66669143  0.58452619  0.32693992    -0.38300
N1792       N  0.62236794  0.62006059  0.32291431    -0.39900
C1793       C  0.61092718  0.47233038  0.32569574    -0.04900
C1794       C  0.61193463  0.47899699  0.35069487     0.09300
C1795       C  0.63538683  0.50005018  0.36035158    -0.02300
C1796       C  0.65766974  0.51483568  0.34496361    -0.00500
C1797       C  0.65648648  0.50920350  0.31931989    -0.04100
C1798       C  0.63285923  0.48705477  0.31009752     0.02900
C1799       C  0.58732224  0.46469486  0.36612177     0.09700
C1800       C  0.63623841  0.50695419  0.38611460     0.35600
C1801       C  0.63015842  0.47920518  0.28441800     0.39000
C1802       C  0.58049687  0.43998683  0.37705024    -0.04500
C1803       C  0.55520586  0.42448791  0.38794081     0.02700
C1804       C  0.53602444  0.43312279  0.38695272    -0.04100
C1805       C  0.54397352  0.45904297  0.37775695    -0.00300
C1806       C  0.56939179  0.47459734  0.36740174    -0.02900
C1807       C  0.59921370  0.43006303  0.37609262     0.36400
C1808       C  0.52615710  0.47008708  0.37894395     0.40000
C1809       C  0.54901325  0.39947149  0.39950132     0.39100
C1810       C  0.57682868  0.50052345  0.35708595     0.36000
C1811       C  0.58661076  0.45070478  0.31577498     0.36700
C1812       C  0.68174732  0.53555200  0.35596870     0.40000
N1813       N  0.54430663  0.37961648  0.40886947    -0.38100
N1814       N  0.61415416  0.42216404  0.37515770    -0.39700
N1815       N  0.51195451  0.47888670  0.37977526    -0.37400
N1816       N  0.58282853  0.52120740  0.34884977    -0.39800
N1817       N  0.63683133  0.51255950  0.40663468    -0.39600
N1818       N  0.70095046  0.55191916  0.36493313    -0.37200
N1819       N  0.62773413  0.47268196  0.26401564    -0.38300
N1820       N  0.56716943  0.43355665  0.30793901    -0.39900
C1821       C  0.17026869  0.44057139  0.72047359    -0.04900
C1822       C  0.17369251  0.45201819  0.69679795     0.09300
C1823       C  0.19738000  0.45891050  0.68374871    -0.02300
C1824       C  0.21577456  0.45154446  0.69280880    -0.00500
C1825       C  0.21166016  0.43874109  0.71584497    -0.04100
C1826       C  0.18945305  0.43443452  0.73014703     0.02900
C1827       C  0.15125642  0.45347950  0.68388904     0.09700
C1828       C  0.20213278  0.47241836  0.66024782     0.35600
C1829       C  0.18547777  0.42209443  0.75413905     0.39000
C1830       C  0.14379395  0.47276469  0.69014320    -0.04500
C1831       C  0.12413235  0.47498578  0.67628320     0.02700
C1832       C  0.11239030  0.45853389  0.65556252    -0.04100
C1833       C  0.11990263  0.43927006  0.64942293    -0.00300
C1834       C  0.13850431  0.43623343  0.66390007    -0.02900
C1835       C  0.15704919  0.49096016  0.71024203     0.36400
C1836       C  0.10898509  0.42282781  0.62772979     0.40000
C1837       C  0.11719922  0.49529287  0.68244613     0.39100
C1838       C  0.14495388  0.41549434  0.65791563     0.36000
C1839       C  0.14630363  0.43370499  0.73427642     0.36700
C1840       C  0.23818744  0.45577279  0.67763616     0.40000
N1841       N  0.11180186  0.51160354  0.68738061    -0.38100
N1842       N  0.16763342  0.50549843  0.72629394    -0.39700
N1843       N  0.10059143  0.40981693  0.61032592    -0.37400
N1844       N  0.15020999  0.39903565  0.65319108    -0.39800
N1845       N  0.20584886  0.48314162  0.64148704    -0.39600
N1846       N  0.25576520  0.45889607  0.66521441    -0.37200
N1847       N  0.18237860  0.41233335  0.77333223    -0.38300
N1848       N  0.12716856  0.42824372  0.74530568    -0.39900
C1849       C  0.40908265  0.52542293  0.66488531    -0.04900
C1850       C  0.38755821  0.50941644  0.64928252     0.09300
C1851       C  0.39140774  0.51198570  0.62348335    -0.02300
C1852       C  0.41660899  0.52974265  0.61345786    -0.00500
C1853       C  0.43818158  0.54529620  0.62912552    -0.04100
C1854       C  0.43409334  0.54342209  0.65488141     0.02900
C1855       C  0.36103195  0.48978062  0.66019535     0.09700
C1856       C  0.36946029  0.49607572  0.60722644     0.35600
C1857       C  0.45558629  0.56049986  0.67119280     0.39000
C1858       C  0.34558664  0.49886587  0.67287282    -0.04500
C1859       C  0.32221562  0.48073279  0.68541078     0.02700
C1860       C  0.31336307  0.45307869  0.68478479    -0.04100
C1861       C  0.32792340  0.44385167  0.67075867    -0.00300
C1862       C  0.35188527  0.46213143  0.65899794    -0.02900
C1863       C  0.35412559  0.52705875  0.67348814     0.36400
C1864       C  0.31913972  0.41564721  0.66953506     0.40000
C1865       C  0.30729508  0.49071299  0.69908981     0.39100
C1866       C  0.36783635  0.45253535  0.64658443     0.36000
C1867       C  0.40565567  0.52310482  0.69138033     0.36700
C1868       C  0.42059055  0.53120350  0.58703677     0.40000
N1869       N  0.29541880  0.49867507  0.70999359    -0.38100
N1870       N  0.36104952  0.54958249  0.67410279    -0.39700
N1871       N  0.31213468  0.39312101  0.66848944    -0.37400
N1872       N  0.38063566  0.44498948  0.63667807    -0.39800
N1873       N  0.35197351  0.48322376  0.59426461    -0.39600
N1874       N  0.42386615  0.53239944  0.56596306    -0.37200
N1875       N  0.47273039  0.57423872  0.68411615    -0.38300
N1876       N  0.40295442  0.52140887  0.71251935    -0.39900
C1877       C  0.43127312  0.16830700  0.82663548    -0.04900
C1878       C  0.44190211  0.15779699  0.80937073     0.09300
C1879       C  0.44463481  0.16594896  0.78462146    -0.02300
C1880       C  0.43688891  0.18468991  0.77713207    -0.00500
C1881       C  0.42600129  0.19527399  0.79440165    -0.04100
C1882       C  0.42307514  0.18661251  0.81925197     0.02900
C1883       C  0.45031937  0.13831046  0.81791483     0.09700
C1884       C  0.45532052  0.15487507  0.76686846     0.35600
C1885       C  0.41172322  0.19638932  0.83762955     0.39000
C1886       C  0.43206145  0.11083264  0.81798562    -0.04500
C1887       C  0.43751574  0.09314292  0.83152501     0.02700
C1888       C  0.46103050  0.10300955  0.84552889    -0.04100
C1889       C  0.48029753  0.13020271  0.84360330    -0.00300
C1890       C  0.47508060  0.14766574  0.82950590    -0.02900
C1891       C  0.40704117  0.10101180  0.80519236     0.36400
C1892       C  0.50519658  0.14044189  0.85675913     0.40000
C1893       C  0.41796557  0.06516073  0.83255552     0.39100
C1894       C  0.49471952  0.17556047  0.82768382     0.36000
C1895       C  0.42892531  0.16028488  0.85225546     0.36700
C1896       C  0.43925971  0.19216099  0.75140977     0.40000
N1897       N  0.40244804  0.04281180  0.83340396    -0.38100
N1898       N  0.38706664  0.09313743  0.79496924    -0.39700
N1899       N  0.52499053  0.14865255  0.86736647    -0.37400
N1900       N  0.51037771  0.19780087  0.82602842    -0.39800
N1901       N  0.46379020  0.14596443  0.75270792    -0.39600
N1902       N  0.44118400  0.19812054  0.73087540    -0.37200
N1903       N  0.40234646  0.20359463  0.85251310    -0.38300
N1904       N  0.42724669  0.15398719  0.87267196    -0.39900
C1905       C  0.34709188  0.30980925  0.72733502    -0.04900
C1906       C  0.34599486  0.32624377  0.74606640     0.09300
C1907       C  0.35869711  0.32812406  0.76870637    -0.02300
C1908       C  0.37178099  0.31320862  0.77283388    -0.00500
C1909       C  0.37183646  0.29576826  0.75452476    -0.04100
C1910       C  0.35948458  0.29422824  0.73171725     0.02900
C1911       C  0.32975615  0.34000125  0.74291713     0.09700
C1912       C  0.35744054  0.34476881  0.78810621     0.35600
C1913       C  0.35758851  0.27510216  0.71344884     0.39000
C1914       C  0.30206076  0.32574406  0.74667438    -0.04500
C1915       C  0.28692157  0.33895367  0.74595189     0.02700
C1916       C  0.29934077  0.36664454  0.74155982    -0.04100
C1917       C  0.32698246  0.38079479  0.73722363    -0.00300
C1918       C  0.34205924  0.36745868  0.73766829    -0.02900
C1919       C  0.28912159  0.29733853  0.75111075     0.36400
C1920       C  0.33976567  0.40888074  0.73132957     0.40000
C1921       C  0.25852118  0.32404014  0.75011044     0.39100
C1922       C  0.37012806  0.38175842  0.73197087     0.36000
C1923       C  0.33489349  0.30849368  0.70373094     0.36700
C1924       C  0.38489048  0.31554722  0.79616678     0.40000
N1925       N  0.23586948  0.31214153  0.75340828    -0.38100
N1926       N  0.27886501  0.27464495  0.75443916    -0.39700
N1927       N  0.34995178  0.43128579  0.72659650    -0.37400
N1928       N  0.39248225  0.39308518  0.72717767    -0.39800
N1929       N  0.35626788  0.35802423  0.80350898    -0.39600
N1930       N  0.39533342  0.31749491  0.81479812    -0.37200
N1931       N  0.35543571  0.25962221  0.69880485    -0.38300
N1932       N  0.32525994  0.30750152  0.68484361    -0.39900
C1933       C  0.53034230  0.37796271  0.86972347    -0.04900
C1934       C  0.50297321  0.36948578  0.86749670     0.09300
C1935       C  0.49265773  0.38473648  0.87844671    -0.02300
C1936       C  0.50970458  0.40893674  0.89025549    -0.00500
C1937       C  0.53739042  0.41851974  0.89076864    -0.04100
C1938       C  0.54754742  0.40249030  0.88120583     0.02900
C1939       C  0.48534133  0.34614514  0.85151640     0.09700
C1940       C  0.46457822  0.37609920  0.87651765     0.35600
C1941       C  0.57584179  0.41199639  0.88176618     0.39000
C1942       C  0.46635373  0.32180286  0.86193305    -0.04500
C1943       C  0.44809826  0.30082017  0.84677501     0.02700
C1944       C  0.44892665  0.30374459  0.82078745    -0.04100
C1945       C  0.46816849  0.32852959  0.81054179    -0.00300
C1946       C  0.48615840  0.34934960  0.82580074    -0.02900
C1947       C  0.46564298  0.31849298  0.88841083     0.36400
C1948       C  0.46908358  0.33348724  0.78427551     0.40000
C1949       C  0.42853496  0.27641107  0.85828821     0.39100
C1950       C  0.50529572  0.37456582  0.81499804     0.36000
C1951       C  0.54089026  0.36184301  0.85939600     0.36700
C1952       C  0.49871385  0.42424607  0.90163317     0.40000
N1953       N  0.41287608  0.25725749  0.86793411    -0.38100
N1954       N  0.46517668  0.31599303  0.90955747    -0.39700
N1955       N  0.46996245  0.33752872  0.76334356    -0.37400
N1956       N  0.52057069  0.39463716  0.80641084    -0.39800
N1957       N  0.44216447  0.36912761  0.87491263    -0.39600
N1958       N  0.48995069  0.43641786  0.91074007    -0.37200
N1959       N  0.59845690  0.41969414  0.88221461    -0.38300
N1960       N  0.54931129  0.34897009  0.85116422    -0.39900
C1961       C  0.46008878  0.87166263  0.66514439    -0.04900
C1962       C  0.47311334  0.86186719  0.64980459     0.09300
C1963       C  0.46786428  0.85939273  0.62431080    -0.02300
C1964       C  0.45026440  0.86735350  0.61410543    -0.00500
C1965       C  0.43759394  0.87772613  0.62940577    -0.04100
C1966       C  0.44239808  0.87942400  0.65509692     0.02900
C1967       C  0.49228186  0.85427388  0.66101689     0.09700
C1968       C  0.48062169  0.84861521  0.60861867     0.35600
C1969       C  0.42863281  0.88854410  0.67150825     0.39000
C1970       C  0.48270287  0.82995061  0.67365797    -0.04500
C1971       C  0.49986035  0.82509610  0.68860672     0.02700
C1972       C  0.52684282  0.84471246  0.69127590    -0.04100
C1973       C  0.53691517  0.86798718  0.67666488    -0.00300
C1974       C  0.51968010  0.87264480  0.66154402    -0.02900
C1975       C  0.45493867  0.81014453  0.67164004     0.36400
C1976       C  0.56460576  0.88808570  0.67836842     0.40000
C1977       C  0.48966300  0.79976728  0.70115648     0.39100
C1978       C  0.52996220  0.89674595  0.64702989     0.36000
C1979       C  0.46496551  0.87373883  0.69144820     0.36700
C1980       C  0.44599756  0.86572987  0.58776000     0.40000
N1981       N  0.48155572  0.77952911  0.71110353    -0.38100
N1982       N  0.43279545  0.79436496  0.66992593    -0.39700
N1983       N  0.58666193  0.90418751  0.67984137    -0.37400
N1984       N  0.53818635  0.91585488  0.63524101    -0.39800
N1985       N  0.49079243  0.83995859  0.59614053    -0.39600
N1986       N  0.44258714  0.86445626  0.56671559    -0.37200
N1987       N  0.41769952  0.89581683  0.68461923    -0.38300
N1988       N  0.46886095  0.87525848  0.71241790    -0.39900
C1989       C  0.29322040  0.85666810  0.67466605    -0.04900
C1990       C  0.28700224  0.83039377  0.68064470     0.09300
C1991       C  0.30571493  0.82192345  0.67577410    -0.02300
C1992       C  0.32932007  0.83865201  0.66296607    -0.00500
C1993       C  0.33502268  0.86449909  0.65593458    -0.04100
C1994       C  0.31753066  0.87393933  0.66297844     0.02900
C1995       C  0.26007635  0.81088305  0.69039282     0.09700
C1996       C  0.30016207  0.79557493  0.68328616     0.35600
C1997       C  0.32380357  0.90089625  0.65694359     0.39000
C1998       C  0.24124059  0.79142787  0.67454850    -0.04500
C1999       C  0.21605941  0.77265487  0.68356403     0.02700
C2000       C  0.20927269  0.77341940  0.70841884    -0.04100
C2001       C  0.22825942  0.79250355  0.72441554    -0.00300
C2002       C  0.25363357  0.81110905  0.71543750    -0.02900
C2003       C  0.24780977  0.79077469  0.64886676     0.36400
C2004       C  0.22146356  0.79342904  0.74995582     0.40000
C2005       C  0.19730934  0.75204361  0.66738689     0.39100
C2006       C  0.27323702  0.83041977  0.73192945     0.36000
C2007       C  0.27394687  0.86542015  0.67921059     0.36700
C2008       C  0.34750728  0.82901666  0.65644773     0.40000
N2009       N  0.18243773  0.73547384  0.65454062    -0.38100
N2010       N  0.25312101  0.79023646  0.62841723    -0.39700
N2011       N  0.21603749  0.79415326  0.77033692    -0.37400
N2012       N  0.28899289  0.84585546  0.74502362    -0.39800
N2013       N  0.29560801  0.77453533  0.68938464    -0.39600
N2014       N  0.36197520  0.82134460  0.65109708    -0.37200
N2015       N  0.32893973  0.92248160  0.65229805    -0.38300
N2016       N  0.25854146  0.87241106  0.68263199    -0.39900
C2017       C  0.16638386  0.09623895  0.53273707    -0.04900
C2018       C  0.18234640  0.12415932  0.53299641     0.09300
C2019       C  0.20595361  0.13590141  0.54685712    -0.02300
C2020       C  0.21455091  0.11980602  0.55892161    -0.00500
C2021       C  0.19921685  0.09183437  0.55774922    -0.04100
C2022       C  0.17463271  0.08010587  0.54534500     0.02900
C2023       C  0.17618851  0.14113759  0.51634677     0.09700
C2024       C  0.22198695  0.16460692  0.54770003     0.35600
C2025       C  0.15873219  0.05139709  0.54409222     0.39000
C2026       C  0.16272260  0.15433677  0.52518173    -0.04500
C2027       C  0.15818217  0.17127749  0.50948057     0.02700
C2028       C  0.16777987  0.17568506  0.48497935    -0.04100
C2029       C  0.18171309  0.16268683  0.47640625    -0.00300
C2030       C  0.18531094  0.14508637  0.49183265    -0.02900
C2031       C  0.15366511  0.15047873  0.55049179     0.36400
C2032       C  0.19359001  0.16829894  0.45204489     0.40000
C2033       C  0.14301847  0.18351748  0.51840930     0.39100
C2034       C  0.19870081  0.13111822  0.48252934     0.36000
C2035       C  0.14222215  0.08413219  0.51834975     0.36700
C2036       C  0.23964915  0.13203947  0.57189016     0.40000
N2037       N  0.13082832  0.19319161  0.52554345    -0.38100
N2038       N  0.14658036  0.14741040  0.57074744    -0.39700
N2039       N  0.20316934  0.17286816  0.43267924    -0.37400
N2040       N  0.20919953  0.11983008  0.47508169    -0.39800
N2041       N  0.23464292  0.18752409  0.54833396    -0.39600
N2042       N  0.25972747  0.14184800  0.58213805    -0.37200
N2043       N  0.14607535  0.02849091  0.54311588    -0.38300
N2044       N  0.12304082  0.07449021  0.50672293    -0.39900
C2045       C  0.28716426  0.97966244  0.60696645    -0.04900
C2046       C  0.28600954  0.96459852  0.58598445     0.09300
C2047       C  0.27009513  0.96336894  0.56590399    -0.02300
C2048       C  0.25671270  0.97831331  0.56614211    -0.00500
C2049       C  0.25892921  0.99450909  0.58659133    -0.04100
C2050       C  0.27356067  0.99448876  0.60732001     0.02900
C2051       C  0.30370067  0.95236136  0.58401020     0.09700
C2052       C  0.26854244  0.94770337  0.54443509     0.35600
C2053       C  0.27593296  0.01096253  0.62836266     0.39000
C2054       C  0.29380609  0.92496208  0.58824631    -0.04500
C2055       C  0.31117583  0.91417597  0.58803460     0.02700
C2056       C  0.33860322  0.93081553  0.58368501    -0.04100
C2057       C  0.34801533  0.95779155  0.57755305    -0.00300
C2058       C  0.33066334  0.96850147  0.57778234    -0.02900
C2059       C  0.26586711  0.90804011  0.59346404     0.36400
C2060       C  0.37561865  0.97455291  0.57084315     0.40000
C2061       C  0.30099075  0.88625847  0.59357853     0.39100
C2062       C  0.34058325  0.99632819  0.57196111     0.36000
C2063       C  0.30337035  0.98078984  0.62772928     0.36700
C2064       C  0.24140088  0.97759849  0.54478692     0.40000
N2065       N  0.29288295  0.86397231  0.59795016    -0.38100
N2066       N  0.24354568  0.89449571  0.59753269    -0.39700
N2067       N  0.39759913  0.98789043  0.56536456    -0.37400
N2068       N  0.34832879  0.01850806  0.56737819    -0.39800
N2069       N  0.26727130  0.93523095  0.52728792    -0.39600
N2070       N  0.22953634  0.97669444  0.52736893    -0.37200
N2071       N  0.27785010  0.02415063  0.64513866    -0.38300
N2072       N  0.31646315  0.98171511  0.64417930    -0.39900
C2073       C  0.14223081  0.90950014  0.46780498    -0.04900
C2074       C  0.13138760  0.92345764  0.48028626     0.09300
C2075       C  0.10369200  0.91342521  0.48027875    -0.02300
C2076       C  0.08679260  0.88874505  0.46906813    -0.00500
C2077       C  0.09759919  0.87419921  0.45750295    -0.04100
C2078       C  0.12541823  0.88518735  0.45607068     0.02900
C2079       C  0.14875722  0.94643474  0.49645764     0.09700
C2080       C  0.09258270  0.92779292  0.49314243     0.35600
C2081       C  0.13673444  0.87127306  0.44272997     0.39000
C2082       C  0.16281781  0.97253253  0.48708071    -0.04500
C2083       C  0.17988375  0.99377111  0.50255489     0.02700
C2084       C  0.18248361  0.98902482  0.52769644    -0.04100
C2085       C  0.16852641  0.96259953  0.53682280    -0.00300
C2086       C  0.15186407  0.94154393  0.52126353    -0.02900
C2087       C  0.15968486  0.97742910  0.46148605     0.36400
C2088       C  0.17238408  0.95654760  0.56192146     0.40000
C2089       C  0.19459666  0.02039634  0.49252806     0.39100
C2090       C  0.13828011  0.91452179  0.53064402     0.36000
C2091       C  0.17060025  0.91932458  0.46852233     0.36700
C2092       C  0.05827377  0.87743668  0.47104917     0.40000
N2093       N  0.20652132  0.04159210  0.48443832    -0.38100
N2094       N  0.15714111  0.98132974  0.44105812    -0.39700
N2095       N  0.17551616  0.95169720  0.58188273    -0.37400
N2096       N  0.12752936  0.89296293  0.53804101    -0.39800
N2097       N  0.08379529  0.93927679  0.50349884    -0.39600
N2098       N  0.03551710  0.86832697  0.47272383    -0.37200
N2099       N  0.14575456  0.86026278  0.43193990    -0.38300
N2100       N  0.19321218  0.92712469  0.46941996    -0.39900
C2101       C  0.31777085  0.12053615  0.65140251    -0.04900
C2102       C  0.30703194  0.13365579  0.66550608     0.09300
C2103       C  0.28129687  0.12922271  0.66020295    -0.02300
C2104       C  0.26622597  0.11147582  0.64130085    -0.00500
C2105       C  0.27686756  0.09816602  0.62727044    -0.04100
C2106       C  0.30281801  0.10297414  0.63228314     0.02900
C2107       C  0.32331774  0.15328733  0.68509671     0.09700
C2108       C  0.27054416  0.14340496  0.67393594     0.35600
C2109       C  0.31386651  0.08927130  0.61824148     0.39000
C2110       C  0.34328483  0.17885719  0.67833326    -0.04500
C2111       C  0.35864132  0.19760454  0.69646554     0.02700
C2112       C  0.35356704  0.19139508  0.72200009    -0.04100
C2113       C  0.33350474  0.16542749  0.72862142    -0.00300
C2114       C  0.31869439  0.14652285  0.71025172    -0.02900
C2115       C  0.34802776  0.18586663  0.65245060     0.36400
C2116       C  0.32881814  0.15743628  0.75423573     0.40000
C2117       C  0.37984198  0.22316351  0.68828342     0.39100
C2118       C  0.29901067  0.11974736  0.71716618     0.36000
C2119       C  0.34427727  0.12515462  0.65662107     0.36700
C2120       C  0.24000571  0.10759275  0.63578919     0.40000
N2121       N  0.39688043  0.24334158  0.68152509    -0.38100
N2122       N  0.35178724  0.19134789  0.63180373    -0.39700
N2123       N  0.32505071  0.15091139  0.77464812    -0.37400
N2124       N  0.28338581  0.09833375  0.72260230    -0.39800
N2125       N  0.26202918  0.15477836  0.68489025    -0.39600
N2126       N  0.21913809  0.10456888  0.63134425    -0.37200
N2127       N  0.32262572  0.07831067  0.60698912    -0.38300
N2128       N  0.36547605  0.12895097  0.66074985    -0.39900
C2129       C  0.88907551  0.48303768  0.88296399    -0.04900
C2130       C  0.86311670  0.47478669  0.87471065     0.09300
C2131       C  0.84286868  0.44853840  0.87922225    -0.02300
C2132       C  0.84907723  0.42984679  0.88975210    -0.00500
C2133       C  0.87561089  0.43747263  0.89574715    -0.04100
C2134       C  0.89524301  0.46452539  0.89373459     0.02900
C2135       C  0.85807002  0.49260047  0.85827151     0.09700
C2136       C  0.81591897  0.44053167  0.87181409     0.35600
C2137       C  0.92189799  0.47339552  0.90273201     0.39000
C2138       C  0.86505255  0.49437147  0.83322411    -0.04500
C2139       C  0.86113049  0.51142612  0.81740487     0.02700
C2140       C  0.84893200  0.52603818  0.82625053    -0.04100
C2141       C  0.84185305  0.52413207  0.85142540    -0.00300
C2142       C  0.84680238  0.50774885  0.86743819    -0.02900
C2143       C  0.87622687  0.47840368  0.82367688     0.36400
C2144       C  0.82870227  0.53827513  0.86079310     0.40000
C2145       C  0.87062390  0.51449486  0.79221124     0.39100
C2146       C  0.84034034  0.50641215  0.89335016     0.36000
C2147       C  0.90969118  0.51031319  0.87919421     0.36700
C2148       C  0.82846926  0.40255196  0.89307250     0.40000
N2149       N  0.87825297  0.51694396  0.77215442    -0.38100
N2150       N  0.88502761  0.46559072  0.81610847    -0.39700
N2151       N  0.81815731  0.54951916  0.86822793    -0.37400
N2152       N  0.83525473  0.50537935  0.91406386    -0.39800
N2153       N  0.79446101  0.43434931  0.86591264    -0.39600
N2154       N  0.81196303  0.38077282  0.89579644    -0.37200
N2155       N  0.94310746  0.48063845  0.91007200    -0.38300
N2156       N  0.92612726  0.53204302  0.87603179    -0.39900
C2157       C  0.84189927  0.30584317  0.82487555    -0.04900
C2158       C  0.82343644  0.28142662  0.83549710     0.09300
C2159       C  0.81988275  0.27968292  0.86120113    -0.02300
C2160       C  0.83510147  0.30189522  0.87634101    -0.00500
C2161       C  0.85372762  0.32680259  0.86587081    -0.04100
C2162       C  0.85661749  0.32851352  0.83982664     0.02900
C2163       C  0.80773904  0.25707335  0.81995779     0.09700
C2164       C  0.80048541  0.25466617  0.87213572     0.35600
C2165       C  0.87432590  0.35360250  0.82807445     0.39000
C2166       C  0.81444799  0.23667051  0.81975397    -0.04500
C2167       C  0.79732274  0.21182511  0.80891782     0.02700
C2168       C  0.77318777  0.20712093  0.79738525    -0.04100
C2169       C  0.76770142  0.22862263  0.79612074    -0.00300
C2170       C  0.78476010  0.25325364  0.80754123    -0.02900
C2171       C  0.83893267  0.24115726  0.83133774     0.36400
C2172       C  0.74398587  0.22547908  0.78408503     0.40000
C2173       C  0.80485993  0.19123990  0.81033257     0.39100
C2174       C  0.77827811  0.27458763  0.80727424     0.36000
C2175       C  0.84596548  0.30747649  0.79846608     0.36700
C2176       C  0.83187033  0.29829223  0.90280006     0.40000
N2177       N  0.81101432  0.17494313  0.81173397    -0.38100
N2178       N  0.85843354  0.24471981  0.84053298    -0.39700
N2179       N  0.72513729  0.22322938  0.77451860    -0.37400
N2180       N  0.77329938  0.29174918  0.80710125    -0.39800
N2181       N  0.78501624  0.23469433  0.88075358    -0.39600
N2182       N  0.82912775  0.29519887  0.92386071    -0.37200
N2183       N  0.88839409  0.37359327  0.81860045    -0.38300
N2184       N  0.84921326  0.30871564  0.77739291    -0.39900
C2185       C  0.95539334  0.47460616  0.99239017    -0.04900
C2186       C  0.98009177  0.47703876  0.99886666     0.09300
C2187       C  0.99007486  0.46275966  0.98557521    -0.02300
C2188       C  0.97491016  0.44520663  0.96661557    -0.00500
C2189       C  0.94957758  0.44170225  0.96095423    -0.04100
C2190       C  0.94012972  0.45696075  0.97352423     0.02900
C2191       C  0.99627109  0.49574102  0.01890053     0.09700
C2192       C  0.01607093  0.46630051  0.99138210     0.35600
C2193       C  0.91518099  0.45532270  0.96643727     0.39000
C2194       C  0.99295997  0.48718404  0.04357913    -0.04500
C2195       C  0.00856972  0.50486307  0.06236278     0.02700
C2196       C  0.02768165  0.53145950  0.05658682    -0.04100
C2197       C  0.03104056  0.53968686  0.03153083    -0.00300
C2198       C  0.01524880  0.52197496  0.01296956    -0.02900
C2199       C  0.97366507  0.45995937  0.04954249     0.36400
C2200       C  0.05093457  0.56625223  0.02430745     0.40000
C2201       C  0.00576411  0.49505393  0.08736632     0.39100
C2202       C  0.01856870  0.53067339  0.98751783     0.36000
C2203       C  0.94600033  0.49068802  0.00490804     0.36700
C2204       C  0.98511743  0.43029434  0.95329299     0.40000
N2205       N  0.00357928  0.48715602  0.10728377    -0.38100
N2206       N  0.95829333  0.43822909  0.05428309    -0.39700
N2207       N  0.06708695  0.58713702  0.01809562    -0.37400
N2208       N  0.02115439  0.53752601  0.96721502    -0.39800
N2209       N  0.03688053  0.46926193  0.99597119    -0.39600
N2210       N  0.99318284  0.41841535  0.94251129    -0.37200
N2211       N  0.89544535  0.45435737  0.96073950    -0.38300
N2212       N  0.93869855  0.50368911  0.01486399    -0.39900
C2213       C  0.15192035  0.21937309  0.96391830    -0.04900
C2214       C  0.14096278  0.19262447  0.97151547     0.09300
C2215       C  0.11468240  0.17431283  0.96457779    -0.02300
C2216       C  0.09902057  0.18317752  0.95195967    -0.00500
C2217       C  0.10844551  0.21069555  0.94879258    -0.04100
C2218       C  0.13560075  0.22853511  0.95327312     0.02900
C2219       C  0.15614267  0.18488038  0.98915418     0.09700
C2220       C  0.10314330  0.14667099  0.97176984     0.35600
C2221       C  0.14685002  0.25641621  0.94688920     0.39000
C2222       C  0.16113520  0.19555171  0.01321035    -0.04500
C2223       C  0.17635328  0.18977427  0.02978159     0.02700
C2224       C  0.18606553  0.17239448  0.02292715    -0.04100
C2225       C  0.18067005  0.16123922  0.99905443    -0.00300
C2226       C  0.16603048  0.16769700  0.98213581    -0.02900
C2227       C  0.15060888  0.21269687  0.02098025     0.36400
C2228       C  0.18942960  0.14245882  0.99216127     0.40000
C2229       C  0.18286675  0.20271258  0.05365861     0.39100
C2230       C  0.16128679  0.15679049  0.95747651     0.36000
C2231       C  0.17977583  0.23774763  0.96821092     0.36700
C2232       C  0.07327424  0.16399667  0.94252271     0.40000
N2233       N  0.18811599  0.21315509  0.07262096    -0.38100
N2234       N  0.14233170  0.22647661  0.02707394    -0.39700
N2235       N  0.19628750  0.12733928  0.98675080    -0.37400
N2236       N  0.15735722  0.14794241  0.93783431    -0.39800
N2237       N  0.09389486  0.12462087  0.97759122    -0.39600
N2238       N  0.05291743  0.14862825  0.93459288    -0.37200
N2239       N  0.15578288  0.27864098  0.94180113    -0.38300
N2240       N  0.20198784  0.25237258  0.97167977    -0.39900
C2241       C  0.12810355  0.28460481  0.83977066    -0.04900
C2242       C  0.14492308  0.31228778  0.84108996     0.09300
C2243       C  0.14394310  0.32594838  0.86230292    -0.02300
C2244       C  0.12659263  0.31207145  0.88213369    -0.00500
C2245       C  0.10895835  0.28418227  0.88072901    -0.04100
C2246       C  0.10999402  0.27070791  0.85902918     0.02900
C2247       C  0.16423665  0.32683490  0.82037488     0.09700
C2248       C  0.16087523  0.35451816  0.86363831     0.35600
C2249       C  0.09305719  0.24225811  0.85632954     0.39000
C2250       C  0.15537918  0.33227365  0.79797323    -0.04500
C2251       C  0.17343618  0.34545853  0.77845909     0.02700
C2252       C  0.20080684  0.35433643  0.78141576    -0.04100
C2253       C  0.20952119  0.34819535  0.80360607    -0.00300
C2254       C  0.19132937  0.33433380  0.82279626    -0.02900
C2255       C  0.12765957  0.32471995  0.79519199     0.36400
C2256       C  0.23717986  0.35538127  0.80643784     0.40000
C2257       C  0.16386714  0.35041357  0.75551314     0.39100
C2258       C  0.20040827  0.32742690  0.84503915     0.36000
C2259       C  0.13001118  0.27021835  0.81863040     0.36700
C2260       C  0.12724712  0.32692938  0.90390236     0.40000
N2261       N  0.15629320  0.35425410  0.73710621    -0.38100
N2262       N  0.10553208  0.31874239  0.79299141    -0.39700
N2263       N  0.25921611  0.36099622  0.80867195    -0.37400
N2264       N  0.20751491  0.32178331  0.86279350    -0.39800
N2265       N  0.17435689  0.37732599  0.86464860    -0.39600
N2266       N  0.12818152  0.33894894  0.92128741    -0.37200
N2267       N  0.07952143  0.21958941  0.85389476    -0.38300
N2268       N  0.13172952  0.25884118  0.80180852    -0.39900
C2269       C  0.94572975  0.30711682  0.90829385    -0.04900
C2270       C  0.95825424  0.30708412  0.93050178     0.09300
C2271       C  0.95567656  0.32050927  0.95121848    -0.02300
C2272       C  0.94200540  0.33521118  0.94928021    -0.00500
C2273       C  0.93093095  0.33659756  0.92656976    -0.04100
C2274       C  0.93218179  0.32180442  0.90629876     0.02900
C2275       C  0.97617918  0.29502439  0.93112003     0.09700
C2276       C  0.96780917  0.31980048  0.97429244     0.35600
C2277       C  0.91979491  0.32192996  0.88313433     0.39000
C2278       C  0.00348000  0.31112766  0.92624376    -0.04500
C2279       C  0.02038472  0.29988751  0.92525527     0.02700
C2280       C  0.01023431  0.27235997  0.92932818    -0.04100
C2281       C  0.98277338  0.25618089  0.93402408    -0.00300
C2282       C  0.96586993  0.26751285  0.93495109    -0.02900
C2283       C  0.01415149  0.33939950  0.92215917     0.36400
C2284       C  0.97200292  0.22805490  0.93895007     0.40000
C2285       C  0.04817772  0.31666422  0.91930684     0.39100
C2286       C  0.93787235  0.25096660  0.94017087     0.36000
C2287       C  0.94757829  0.29268059  0.88719019     0.36700
C2288       C  0.94067300  0.35013414  0.97019590     0.40000
N2289       N  0.07030199  0.33013799  0.91443501    -0.38100
N2290       N  0.02256946  0.36194723  0.91899295    -0.39700
N2291       N  0.96339130  0.20563539  0.94301622    -0.37400
N2292       N  0.91552562  0.23779574  0.94437937    -0.39800
N2293       N  0.97749085  0.31918917  0.99271067    -0.39600
N2294       N  0.93959619  0.36210856  0.98683637    -0.37200
N2295       N  0.91003665  0.32196327  0.86458236    -0.38300
N2296       N  0.94905360  0.28111398  0.87040164    -0.39900
C2297       C  0.98103245  0.15312924  0.01067585    -0.04900
C2298       C  0.96222338  0.16065789  0.01803137     0.09300
C2299       C  0.96779257  0.18711707  0.01405787    -0.02300
C2300       C  0.99087733  0.20514617  0.00095758    -0.00500
C2301       C  0.00823326  0.19665066  0.99121494    -0.04100
C2302       C  0.00388360  0.17100528  0.99735805     0.02900
C2303       C  0.93556245  0.13997622  0.02762987     0.09700
C2304       C  0.94921410  0.19544783  0.02262647     0.35600
C2305       C  0.02335525  0.16318736  0.99080935     0.39000
C2306       C  0.92976189  0.13708124  0.05308575    -0.04500
C2307       C  0.90424923  0.11802920  0.06158717     0.02700
C2308       C  0.88447279  0.10151310  0.04467086    -0.04100
C2309       C  0.89089098  0.10336053  0.01937369    -0.00300
C2310       C  0.91611771  0.12267338  0.01089204    -0.02900
C2311       C  0.95005128  0.15377577  0.07047870     0.36400
C2312       C  0.87159716  0.08493183  0.00204038     0.40000
C2313       C  0.89806863  0.11610598  0.08762061     0.39100
C2314       C  0.92201793  0.12499317  0.98476823     0.36000
C2315       C  0.97642506  0.12663068  0.01637449     0.36700
C2316       C  0.99626470  0.23216502  0.99680793     0.40000
N2317       N  0.89306023  0.11447992  0.10838871    -0.38100
N2318       N  0.96628120  0.16703801  0.08438715    -0.39700
N2319       N  0.85623089  0.07006788  0.98831598    -0.37400
N2320       N  0.92678859  0.12688411  0.96394431    -0.39800
N2321       N  0.93439279  0.20208892  0.02953119    -0.39600
N2322       N  0.00064849  0.25378958  0.99368164    -0.37200
N2323       N  0.03883405  0.15653734  0.98650029    -0.38300
N2324       N  0.97261654  0.10546802  0.02101992    -0.39900
C2325       C  0.45418941  0.10278491  0.35941968    -0.04900
C2326       C  0.48143118  0.12065439  0.35598119     0.09300
C2327       C  0.48926445  0.14391341  0.34208802    -0.02300
C2328       C  0.47019023  0.14760020  0.32910193    -0.00500
C2329       C  0.44296281  0.12813853  0.33023219    -0.04100
C2330       C  0.43493575  0.10669790  0.34689393     0.02900
C2331       C  0.50169255  0.11298640  0.36372363     0.09700
C2332       C  0.51712133  0.16360089  0.34053064     0.35600
C2333       C  0.40706496  0.08789144  0.35033666     0.39000
C2334       C  0.50764415  0.09736379  0.34778490    -0.04500
C2335       C  0.52571450  0.08878835  0.35485603     0.02700
C2336       C  0.53855439  0.09602754  0.37818669    -0.04100
C2337       C  0.53386327  0.11353476  0.39333663    -0.00300
C2338       C  0.51512815  0.12142398  0.38629094    -0.02900
C2339       C  0.49514205  0.09020680  0.32376951     0.36400
C2340       C  0.54833917  0.12400885  0.41605887     0.40000
C2341       C  0.53114597  0.07291803  0.33743892     0.39100
C2342       C  0.50951107  0.13820535  0.40231026     0.36000
C2343       C  0.44614162  0.07974251  0.37506055     0.36700
C2344       C  0.47874991  0.17135316  0.31429885     0.40000
N2345       N  0.53515737  0.06016393  0.32342360    -0.38100
N2346       N  0.48535755  0.08462226  0.30456352    -0.39700
N2347       N  0.56007171  0.13284910  0.43403620    -0.37400
N2348       N  0.50499973  0.15156880  0.41509711    -0.39800
N2349       N  0.53932816  0.17938857  0.33949470    -0.39600
N2350       N  0.48557434  0.19023766  0.30240916    -0.37200
N2351       N  0.38482245  0.07299090  0.35333502    -0.38300
N2352       N  0.43985656  0.06139674  0.38758086    -0.39900
C2353       C  0.68949032  0.14887611  0.34842263    -0.04900
C2354       C  0.68636213  0.14673219  0.32270646     0.09300
C2355       C  0.66178086  0.12815229  0.31265712    -0.02300
C2356       C  0.64045821  0.11137422  0.32824466    -0.00500
C2357       C  0.64357100  0.11287795  0.35425411    -0.04100
C2358       C  0.66846807  0.13205916  0.36413570     0.02900
C2359       C  0.70970612  0.16339277  0.30647619     0.09700
C2360       C  0.65851344  0.12643894  0.28617029     0.35600
C2361       C  0.67330553  0.13404077  0.39043934     0.39000
C2362       C  0.72707855  0.15388265  0.29950862    -0.04500
C2363       C  0.75135410  0.17094983  0.28782571     0.02700
C2364       C  0.75930562  0.19819973  0.28446853    -0.04100
C2365       C  0.74112685  0.20725887  0.29011345    -0.00300
C2366       C  0.71611409  0.18965364  0.30045419    -0.02900
C2367       C  0.72050609  0.12683620  0.30549799     0.36400
C2368       C  0.74872097  0.23503184  0.28714403     0.40000
C2369       C  0.76823656  0.16042551  0.27934421     0.39100
C2370       C  0.69719944  0.19870049  0.30566759     0.36000
C2371       C  0.71475243  0.16837990  0.35873450     0.36700
C2372       C  0.61526626  0.09297265  0.31718264     0.40000
N2373       N  0.78164504  0.15204758  0.27240434    -0.38100
N2374       N  0.71530535  0.10532138  0.31049456    -0.39700
N2375       N  0.75459990  0.25719725  0.28504800    -0.37400
N2376       N  0.68194098  0.20577218  0.30959446    -0.39800
N2377       N  0.65594857  0.12515932  0.26501647    -0.39600
N2378       N  0.59528264  0.07831188  0.30817627    -0.37200
N2379       N  0.67738708  0.13570289  0.41138852    -0.38300
N2380       N  0.73488529  0.18399692  0.36683319    -0.39900
C2381       C  0.49672701  0.01327418  0.48243782    -0.04900
C2382       C  0.48804247  0.98591355  0.48455630     0.09300
C2383       C  0.49697922  0.97357691  0.46746016    -0.02300
C2384       C  0.51555145  0.98880629  0.44901930    -0.00500
C2385       C  0.52554705  0.01666234  0.44773280    -0.04100
C2386       C  0.51534541  0.02858442  0.46420811     0.02900
C2387       C  0.47060501  0.97058495  0.50574380     0.09700
C2388       C  0.48734257  0.94522517  0.46918789     0.35600
C2389       C  0.52361403  0.05664989  0.46236824     0.39000
C2390       C  0.44281606  0.95909018  0.50404357    -0.04500
C2391       C  0.42667180  0.94628102  0.52464602     0.02700
C2392       C  0.43816582  0.94415293  0.54690753    -0.04100
C2393       C  0.46595513  0.95528918  0.54844319    -0.00300
C2394       C  0.48213381  0.96896236  0.52810635    -0.02900
C2395       C  0.43088264  0.96079707  0.48116268     0.36400
C2396       C  0.47784346  0.95178450  0.57059747     0.40000
C2397       C  0.39826970  0.93613794  0.52322125     0.39100
C2398       C  0.51074747  0.98191892  0.53025737     0.36000
C2399       C  0.48665935  0.02573512  0.49937394     0.36700
C2400       C  0.52514749  0.97583954  0.43219713     0.40000
N2401       N  0.37562808  0.92817923  0.52223069    -0.38100
N2402       N  0.42130585  0.96208931  0.46291901    -0.39700
N2403       N  0.48728664  0.94873669  0.58817852    -0.37400
N2404       N  0.53360833  0.99255906  0.53189144    -0.39800
N2405       N  0.47960226  0.92259166  0.47057276    -0.39600
N2406       N  0.53283960  0.96543337  0.41887494    -0.37200
N2407       N  0.53011385  0.07902971  0.46114136    -0.38300
N2408       N  0.47852503  0.03556573  0.51288384    -0.39900
C2409       C  0.76667788  0.82842894  0.46299715    -0.04900
C2410       C  0.78994639  0.84053974  0.47731654     0.09300
C2411       C  0.80565463  0.86849394  0.47741665    -0.02300
C2412       C  0.79706361  0.88432561  0.46478306    -0.00500
C2413       C  0.77257088  0.87219553  0.45227474    -0.04100
C2414       C  0.75800630  0.84421790  0.45053117     0.02900
C2415       C  0.79584379  0.82401728  0.49476781     0.09700
C2416       C  0.82978410  0.88090040  0.49183824     0.35600
C2417       C  0.73335297  0.83161459  0.43684602     0.39000
C2418       C  0.80856576  0.80982478  0.48665457    -0.04500
C2419       C  0.81273988  0.79322997  0.50311899     0.02700
C2420       C  0.80422986  0.79078865  0.52790024    -0.04100
C2421       C  0.79129481  0.80506159  0.53584412    -0.00300
C2422       C  0.78743530  0.82173658  0.51942178    -0.02900
C2423       C  0.81747124  0.81252843  0.46135977     0.36400
C2424       C  0.78064859  0.80174097  0.56061284     0.40000
C2425       C  0.82618035  0.77907631  0.49452920     0.39100
C2426       C  0.77445695  0.83645366  0.52787024     0.36000
C2427       C  0.75075311  0.79970320  0.46242877     0.36700
C2428       C  0.81242022  0.91305426  0.46617184     0.40000
N2429       N  0.83683939  0.76774688  0.48762279    -0.38100
N2430       N  0.82457821  0.81480652  0.44113849    -0.39700
N2431       N  0.77212485  0.79909082  0.58034562    -0.37400
N2432       N  0.76425837  0.84828010  0.53464082    -0.39800
N2433       N  0.84893641  0.89067631  0.50349490    -0.39600
N2434       N  0.82470911  0.93598539  0.46726361    -0.37200
N2435       N  0.71365116  0.82139129  0.42601558    -0.38300
N2436       N  0.73802511  0.77678345  0.46200306    -0.39900
C2437       C  0.66588327  0.02356350  0.41019799    -0.04900
C2438       C  0.65557300  0.00136065  0.42601039     0.09300
C2439       C  0.63246907  0.99472168  0.43988031    -0.02300
C2440       C  0.61927368  0.00973823  0.43725428    -0.00500
C2441       C  0.62876731  0.03098471  0.42032439    -0.04100
C2442       C  0.65243636  0.03821595  0.40722838     0.02900
C2443       C  0.66936780  0.98520130  0.42791486     0.09700
C2444       C  0.62195214  0.97206134  0.45634624     0.35600
C2445       C  0.66283318  0.06049051  0.39034326     0.39000
C2446       C  0.68671021  0.98933034  0.44766283    -0.04500
C2447       C  0.70088045  0.97521090  0.44873635     0.02700
C2448       C  0.69845715  0.95750635  0.42960836    -0.04100
C2449       C  0.68118111  0.95344846  0.40980137    -0.00300
C2450       C  0.66632049  0.96692217  0.40918115    -0.02900
C2451       C  0.68997542  0.00820180  0.46684417     0.36400
C2452       C  0.67812364  0.93480902  0.39047614     0.40000
C2453       C  0.71788572  0.97893577  0.46965556     0.39100
C2454       C  0.64745902  0.96163571  0.38954373     0.36000
C2455       C  0.69019087  0.03101290  0.39667269     0.36700
C2456       C  0.59595171  0.00335145  0.45194993     0.40000
N2457       N  0.73117360  0.98203278  0.48659081    -0.38100
N2458       N  0.69250176  0.02324558  0.48212367    -0.39700
N2459       N  0.67576627  0.91995856  0.37506124    -0.37400
N2460       N  0.63225060  0.95730739  0.37399313    -0.39800
N2461       N  0.61351988  0.95395107  0.46946142    -0.39600
N2462       N  0.57760093  0.99841399  0.46401945    -0.37200
N2463       N  0.67152678  0.07819591  0.37677825    -0.38300
N2464       N  0.70956330  0.03678870  0.38593007    -0.39900
C2465       C  0.81042040  0.99080194  0.52143069    -0.04900
C2466       C  0.81865047  0.01699725  0.51357770     0.09300
C2467       C  0.81004049  0.02142726  0.49070408    -0.02300
C2468       C  0.79345775  0.99983259  0.47560635    -0.00500
C2469       C  0.78472594  0.97342164  0.48354839    -0.04100
C2470       C  0.79329855  0.96901458  0.50655864     0.02900
C2471       C  0.83623362  0.04039375  0.52917188     0.09700
C2472       C  0.81806663  0.04838840  0.48286725     0.35600
C2473       C  0.78527534  0.94215086  0.51454960     0.39000
C2474       C  0.86390128  0.05363938  0.52534409    -0.04500
C2475       C  0.87990508  0.07907541  0.53553804     0.02700
C2476       C  0.86832060  0.09100435  0.55010591    -0.04100
C2477       C  0.84097265  0.07681985  0.55552390    -0.00300
C2478       C  0.82492875  0.05160842  0.54496188    -0.02900
C2479       C  0.87564288  0.04150900  0.51002043     0.36400
C2480       C  0.82919453  0.08854583  0.57132005     0.40000
C2481       C  0.90796203  0.09366578  0.52969518     0.39100
C2482       C  0.79655642  0.03771758  0.54928991     0.36000
C2483       C  0.81976052  0.98637770  0.54473312     0.36700
C2484       C  0.78474584  0.00498791  0.45219986     0.40000
N2485       N  0.93030008  0.10527541  0.52486682    -0.38100
N2486       N  0.88496227  0.03170519  0.49788700    -0.39700
N2487       N  0.81965955  0.09775668  0.58393392    -0.37400
N2488       N  0.77389900  0.02659316  0.55264358    -0.39800
N2489       N  0.82442300  0.06990877  0.47677542    -0.39600
N2490       N  0.77784485  0.00918161  0.43357433    -0.37200
N2491       N  0.77885428  0.92067453  0.52084144    -0.38300
N2492       N  0.82731050  0.98289071  0.56330801    -0.39900
C2493       C  0.64545079  0.83087492  0.36924279    -0.04900
C2494       C  0.65756302  0.82102542  0.35278459     0.09300
C2495       C  0.68470919  0.82909559  0.35541974    -0.02300
C2496       C  0.69987898  0.84753097  0.37380079    -0.00500
C2497       C  0.68789023  0.85763803  0.39026578    -0.04100
C2498       C  0.66042654  0.84874545  0.38820054     0.02900
C2499       C  0.64199005  0.80251965  0.33226319     0.09700
C2500       C  0.69712970  0.81861917  0.33890477     0.35600
C2501       C  0.64774647  0.85875396  0.40490214     0.39000
C2502       C  0.63851083  0.81276590  0.30983303    -0.04500
C2503       C  0.62475880  0.79549224  0.29013675     0.02700
C2504       C  0.61407938  0.76773832  0.29281646    -0.04100
C2505       C  0.61770793  0.75752812  0.31528773    -0.00300
C2506       C  0.63168003  0.77485595  0.33485637    -0.02900
C2507       C  0.64907401  0.84117944  0.30711977     0.36400
C2508       C  0.60766715  0.72917600  0.31808772     0.40000
C2509       C  0.62090137  0.80626694  0.26738978     0.39100
C2510       C  0.63560705  0.76427120  0.35769884     0.36000
C2511       C  0.61769768  0.82311452  0.36619279     0.36700
C2512       C  0.72790299  0.85585239  0.37585787     0.40000
N2513       N  0.61779491  0.81485786  0.24924252    -0.38100
N2514       N  0.65746413  0.86386205  0.30508449    -0.39700
N2515       N  0.59967307  0.70656606  0.32028719    -0.37400
N2516       N  0.63883485  0.75587467  0.37591116    -0.39800
N2517       N  0.70699099  0.81017349  0.32578106    -0.39600
N2518       N  0.75025005  0.86253180  0.37750317    -0.37200
N2519       N  0.63760500  0.86668377  0.41827194    -0.38300
N2520       N  0.59560360  0.81707687  0.36356706    -0.39900
loop_ 
_geom_bond_atom_site_label_1 
_geom_bond_atom_site_label_2 
_geom_bond_distance 
_geom_bond_site_symmetry_2 
_ccdc_geom_bond_type 
O1           Ni9   1.936       .  S
O1           C11   1.285       .  A
O2           Ni9   1.936       .  S
O2           C12   1.285       .  A
O3           Ni9   1.907       .  S
O3           C13   1.279       .  A
O4           Ni9   1.903       .  S
O4           C14   1.278       .  A
O5          Ni10   1.934       .  S
O5           C14   1.285       .  A
O6          Ni10   1.937       .  S
O6           C13   1.286       .  A
O7          Ni10   1.900       .  S
O7           C12   1.277       .  A
O8          Ni10   1.901       .  S
O8           C11   1.276       .  A
Ni9         Ni10   2.389       .  S
C11        C2448   1.480       .  S
C12        C2413   1.480       .  S
C13        C2497   1.493       .  S
C14        C2469   1.488       .  S
O15         Ni23   1.933       .  S
O15          C25   1.283       .  A
O16         Ni23   1.931       .  S
O16          C26   1.284       .  A
O17         Ni23   1.915       .  S
O17          C27   1.281       .  A
O18         Ni23   1.914       .  S
O18          C28   1.280       .  A
O19         Ni24   1.933       .  S
O19          C28   1.285       .  A
O20         Ni24   1.931       .  S
O20          C27   1.284       .  A
O21         Ni24   1.910       .  S
O21          C26   1.280       .  A
O22         Ni24   1.909       .  S
O22          C25   1.278       .  A
Ni23        Ni24   2.380       .  S
C25        C2441   1.480       .  S
C26        C2336   1.513       .  S
C27        C2385   1.499       .  S
C28        C2357   1.509       .  S
O29         Ni37   1.937       .  S
O29          C39   1.285       .  A
O30         Ni37   1.937       .  S
O30          C40   1.285       .  A
O31         Ni37   1.922       .  S
O31          C41   1.281       .  A
O32         Ni37   1.925       .  S
O32          C42   1.282       .  A
O33         Ni38   1.944       .  S
O33          C42   1.287       .  A
O34         Ni38   1.944       .  S
O34          C41   1.286       .  A
O35         Ni38   1.911       .  S
O35          C40   1.280       .  A
O36         Ni38   1.913       .  S
O36          C39   1.279       .  A
Ni37        Ni38   2.380       .  S
C39        C2280   1.495       .  S
C40        C2217   1.499       .  S
C41        C2301   1.498       .  S
C42        C2245   1.525       .  S
O43         Ni51   1.941       .  S
O43          C53   1.286       .  A
O44         Ni51   1.932       .  S
O44          C54   1.284       .  A
O45         Ni51   1.913       .  S
O45          C55   1.280       .  A
O46         Ni51   1.911       .  S
O46          C56   1.279       .  A
O47         Ni52   1.929       .  S
O47          C56   1.284       .  A
O48         Ni52   1.933       .  S
O48          C55   1.285       .  A
O49         Ni52   1.906       .  S
O49          C54   1.279       .  A
O50         Ni52   1.903       .  S
O50          C53   1.277       .  A
Ni51        Ni52   2.385       .  S
C53        C2273   1.489       .  S
C54        C2133   1.486       .  S
C55        C2161   1.512       .  S
C56        C2189   1.485       .  S
O57         Ni65   1.942       .  S
O57          C67   1.286       .  A
O58         Ni65   1.933       .  S
O58          C68   1.284       .  A
O59         Ni65   1.900       .  S
O59          C69   1.278       .  A
O60         Ni65   1.910       .  S
O60          C70   1.279       .  A
O61         Ni66   1.935       .  S
O61          C70   1.285       .  A
O62         Ni66   1.933       .  S
O62          C69   1.285       .  A
O63         Ni66   1.907       .  S
O63          C68   1.278       .  A
O64         Ni66   1.906       .  S
O64          C67   1.277       .  A
Ni65        Ni66   2.388       .  S
C67        C2049   1.488   1_545  S
C68        C2021   1.484       .  S
C69        C2084   1.494   1_545  S
C70        C2105   1.491       .  S
O71         Ni79   1.937       .  S
O71          C81   1.285       .  A
O72         Ni79   1.939       .  S
O72          C82   1.286       .  A
O73         Ni79   1.904       .  S
O73          C83   1.278       .  A
O74         Ni79   1.910       .  S
O74          C84   1.278       .  A
O75         Ni80   1.932       .  S
O75          C84   1.285       .  A
O76         Ni80   1.935       .  S
O76          C83   1.285       .  A
O77         Ni80   1.912       .  S
O77          C82   1.280       .  A
O78         Ni80   1.907       .  S
O78          C81   1.279       .  A
Ni79        Ni80   2.387       .  S
C81        C2056   1.491       .  S
C82        C1965   1.500       .  S
C83        C1993   1.486       .  S
C84        C2392   1.487       .  S
O85         Ni93   1.944       .  S
O85          C95   1.286       .  A
O86         Ni93   1.933       .  S
O86          C96   1.285       .  A
O87         Ni93   1.902       .  S
O87          C97   1.277       .  A
O88         Ni93   1.903       .  S
O88          C98   1.278       .  A
O89         Ni94   1.949       .  S
O89          C98   1.289       .  A
O90         Ni94   1.947       .  S
O90          C97   1.289       .  A
O91         Ni94   1.912       .  S
O91          C96   1.280       .  A
O92         Ni94   1.910       .  S
O92          C95   1.278       .  A
Ni93        Ni94   2.378       .  S
C95        C1909   1.492       .  S
C96        C1881   1.504       .  S
C97        C2112   1.511       .  S
C98        C1944   1.512       .  S
O99        Ni107   1.943       .  S
O99         C109   1.287       .  A
O100       Ni107   1.948       .  S
O100        C110   1.287       .  A
O101       Ni107   1.916       .  S
O101        C111   1.279       .  A
O102       Ni107   1.911       .  S
O102        C112   1.279       .  A
O103       Ni108   1.946       .  S
O103        C112   1.288       .  A
O104       Ni108   1.948       .  S
O104        C111   1.288       .  A
O105       Ni108   1.910       .  S
O105        C110   1.278       .  A
O106       Ni108   1.907       .  S
O106        C109   1.277       .  A
Ni107      Ni108   2.385       .  S
C109       C1916   1.491       .  S
C110       C1825   1.493       .  S
C111       C2252   1.503       .  S
C112       C1860   1.500       .  S
O113       Ni121   1.939       .  S
O113        C123   1.286       .  A
O114       Ni121   1.943       .  S
O114        C124   1.285       .  A
O115       Ni121   1.905       .  S
O115        C125   1.278       .  A
O116       Ni121   1.908       .  S
O116        C126   1.278       .  A
O117       Ni122   1.942       .  S
O117        C126   1.287       .  A
O118       Ni122   1.940       .  S
O118        C125   1.287       .  A
O119       Ni122   1.905       .  S
O119        C124   1.278       .  A
O120       Ni122   1.905       .  S
O120        C123   1.278       .  A
Ni121      Ni122   2.376       .  S
C123       C1769   1.496       .  S
C124       C1713   1.489       .  S
C125       C1797   1.517       .  S
C126       C1741   1.513       .  S
O127       Ni135   1.933       .  S
O127        C137   1.284       .  A
O128       Ni135   1.935       .  S
O128        C138   1.284       .  A
O129       Ni135   1.909       .  S
O129        C139   1.279       .  A
O130       Ni135   1.913       .  S
O130        C140   1.280       .  A
O131       Ni136   1.934       .  S
O131        C140   1.285       .  A
O132       Ni136   1.931       .  S
O132        C139   1.284       .  A
O133       Ni136   1.914       .  S
O133        C138   1.280       .  A
O134       Ni136   1.909       .  S
O134        C137   1.279       .  A
Ni135      Ni136   2.388       .  S
C137       C1776   1.489       .  S
C138       C1664   1.489       .  S
C139       C1692   1.488       .  S
C140       C2504   1.492       .  S
O141       Ni149   1.947       .  S
O141        C151   1.288       .  A
O142       Ni149   1.941       .  S
O142        C152   1.286       .  A
O143       Ni149   1.905       .  S
O143        C153   1.278       .  A
O144       Ni149   1.899       .  S
O144        C154   1.277       .  A
O145       Ni150   1.937       .  S
O145        C154   1.285       .  A
O146       Ni150   1.933       .  S
O146        C153   1.285       .  A
O147       Ni150   1.901       .  S
O147        C152   1.277       .  A
O148       Ni150   1.900       .  S
O148        C151   1.277       .  A
Ni149      Ni150   2.382       .  S
C151       C1601   1.498       .  S
C152       C1573   1.504       .  S
C153       C2196   1.502       .  S
C154       C1629   1.484       .  S
O155       Ni163   1.936       .  S
O155        C165   1.285       .  A
O156       Ni163   1.936       .  S
O156        C166   1.285       .  A
O157       Ni163   1.915       .  S
O157        C167   1.280       .  A
O158       Ni163   1.911       .  S
O158        C168   1.280       .  A
O159       Ni164   1.930       .  S
O159        C168   1.284       .  A
O160       Ni164   1.930       .  S
O160        C167   1.284       .  A
O161       Ni164   1.908       .  S
O161        C166   1.279       .  A
O162       Ni164   1.913       .  S
O162        C165   1.279       .  A
Ni163      Ni164   2.388       .  S
C165       C1608   1.490       .  S
C166       C1524   1.488       .  S
C167       C1748   1.489       .  S
C168       C1545   1.491       .  S
O169       Ni177   1.937       .  S
O169        C179   1.286       .  A
O170       Ni177   1.938       .  S
O170        C180   1.286       .  A
O171       Ni177   1.905       .  S
O171        C181   1.278       .  A
O172       Ni177   1.909       .  S
O172        C182   1.278       .  A
O173       Ni178   1.943       .  S
O173        C182   1.286       .  A
O174       Ni178   1.938       .  S
O174        C181   1.286       .  A
O175       Ni178   1.910       .  S
O175        C180   1.279       .  A
O176       Ni178   1.913       .  S
O176        C179   1.279       .  A
Ni177      Ni178   2.387       .  S
C179       C1496   1.496       .  S
C180       C1433   1.491       .  S
C181       C1461   1.490       .  S
C182       C1657   1.489       .  S
O183       Ni191   1.943       .  S
O183        C193   1.287       .  A
O184       Ni191   1.940       .  S
O184        C194   1.286       .  A
O185       Ni191   1.903       .  S
O185        C195   1.278       .  A
O186       Ni191   1.902       .  S
O186        C196   1.278       .  A
O187       Ni192   1.930       .  S
O187        C196   1.284       .  A
O188       Ni192   1.931       .  S
O188        C195   1.285       .  A
O189       Ni192   1.907       .  S
O189        C194   1.279       .  A
O190       Ni192   1.906       .  S
O190        C193   1.278       .  A
Ni191      Ni192   2.388       .  S
C193       C1489   1.494       .  S
C194       C2308   1.492       .  S
C195       C1377   1.488       .  S
C196       C1412   1.482       .  S
O197       Ni205   1.936       .  S
O197        C207   1.285       .  A
O198       Ni205   1.939       .  S
O198        C208   1.286       .  A
O199       Ni205   1.900       .  S
O199        C209   1.277       .  A
O200       Ni205   1.899       .  S
O200        C210   1.277       .  A
O201       Ni206   1.936       .  S
O201        C210   1.285       .  A
O202       Ni206   1.936       .  S
O202        C209   1.285       .  A
O203       Ni206   1.905       .  S
O203        C208   1.279       .  A
O204       Ni206   1.906       .  S
O204        C207   1.278       .  A
Ni205      Ni206   2.383       .  S
C207       C1321   1.486       .  S
C208       C2364   1.494       .  S
C209       C1356   1.510       .  S
C210       C1384   1.484       .  S
O211       Ni219   1.932       .  S
O211        C221   1.285       .  A
O212       Ni219   1.931       .  S
O212        C222   1.284       .  A
O213       Ni219   1.904       .  S
O213        C223   1.279       .  A
O214       Ni219   1.905       .  S
O214        C224   1.278       .  A
O215       Ni220   1.930       .  S
O215        C224   1.285       .  A
O216       Ni220   1.931       .  S
O216        C223   1.284       .  A
O217       Ni220   1.906       .  S
O217        C222   1.278       .  A
O218       Ni220   1.908       .  S
O218        C221   1.279       .  A
Ni219      Ni220   2.389       .  S
C221       C1328   1.488       .  S
C222       C1265   1.483       .  S
C223       C1580   1.487       .  S
C224       C1300   1.488       .  S
O225       Ni233   1.934       .  S
O225        C235   1.284       .  A
O226       Ni233   1.931       .  S
O226        C236   1.283       .  A
O227       Ni233   1.907       .  S
O227        C237   1.279       .  A
O228       Ni233   1.907       .  S
O228        C238   1.279       .  A
O229       Ni234   1.932       .  S
O229        C238   1.285       .  A
O230       Ni234   1.930       .  S
O230        C237   1.284       .  A
O231       Ni234   1.909       .  S
O231        C236   1.279       .  A
O232       Ni234   1.908       .  S
O232        C235   1.279       .  A
Ni233      Ni234   2.388       .  S
C235       C1237   1.488       .  S
C236       C1216   1.484       .  S
C237       C1293   1.489       .  S
C238       C2028   1.494       .  S
O239       Ni247   1.938       .  S
O239        C249   1.287       .  A
O240       Ni247   1.938       .  S
O240        C250   1.285       .  A
O241       Ni247   1.911       .  S
O241        C251   1.280       .  A
O242       Ni247   1.910       .  S
O242        C252   1.279       .  A
O243       Ni248   1.926       .  S
O243        C252   1.282       .  A
O244       Ni248   1.934       .  S
O244        C251   1.285       .  A
O245       Ni248   1.909       .  S
O245        C250   1.280       .  A
O246       Ni248   1.908       .  S
O246        C249   1.279       .  A
Ni247      Ni248   2.383       .  S
C249       C1244   1.506       .  S
C250       C1804   1.506       .  S
C251       C1153   1.495       .  S
C252       C1181   1.479       .  S
O253       Ni261   1.935       .  S
O253        C263   1.285       .  A
O254       Ni261   1.936       .  S
O254        C264   1.285       .  A
O255       Ni261   1.911       .  S
O255        C265   1.280       .  A
O256       Ni261   1.917       .  S
O256        C266   1.281       .  A
O257       Ni262   1.925       .  S
O257        C266   1.283       .  A
O258       Ni262   1.927       .  S
O258        C265   1.282       .  A
O259       Ni262   1.911       .  S
O259        C264   1.280       .  A
O260       Ni262   1.907       .  S
O260        C263   1.278       .  A
Ni261      Ni262   2.388       .  S
C263       C1097   1.487       .  S
C264       C1853   1.493       .  S
C265       C1125   1.484       .  S
C266       C1160   1.492       .  S
O267       Ni275   1.939       .  S
O267        C277   1.285       .  A
O268       Ni275   1.932       .  S
O268        C278   1.283       .  A
O269       Ni275   1.904       .  S
O269        C279   1.278       .  A
O270       Ni275   1.907       .  S
O270        C280   1.279       .  A
O271       Ni276   1.931       .  S
O271        C280   1.285       .  A
O272       Ni276   1.932       .  S
O272        C279   1.285       .  A
O273       Ni276   1.913       .  S
O273        C278   1.279       .  A
O274       Ni276   1.906       .  S
O274        C277   1.278       .  A
Ni275      Ni276   2.384       .  S
C277       C1104   1.487       .  S
C278       C1048   1.484       .  S
C279       C2420   1.495       .  S
C280       C1069   1.507       .  S
O281       Ni289   1.938       .  S
O281        C291   1.286       .  A
O282       Ni289   1.932       .  S
O282        C292   1.284       .  A
O283       Ni289   1.906       .  S
O283        C293   1.278       .  A
O284       Ni289   1.901       .  S
O284        C294   1.278       .  A
O285       Ni290   1.927       .  S
O285        C294   1.284       .  A
O286       Ni290   1.927       .  S
O286        C293   1.284       .  A
O287       Ni290   1.909       .  S
O287        C292   1.279       .  A
O288       Ni290   1.907       .  S
O288        C291   1.278       .  A
Ni289      Ni290   2.389       .  S
C291       C1013   1.489       .  S
C292        C985   1.485       .  S
C293       C1076   1.481       .  S
C294       C2140   1.490       .  S
O295       Ni303   1.934       .  S
O295        C305   1.285       .  A
O296       Ni303   1.934       .  S
O296        C306   1.284       .  A
O297       Ni303   1.910       .  S
O297        C307   1.279       .  A
O298       Ni303   1.911       .  S
O298        C308   1.280       .  A
O299       Ni304   1.935       .  S
O299        C308   1.285       .  A
O300       Ni304   1.934       .  S
O300        C307   1.285       .  A
O301       Ni304   1.910       .  S
O301        C306   1.279       .  A
O302       Ni304   1.910       .  S
O302        C305   1.279       .  A
Ni303      Ni304   2.387       .  S
C305       C1020   1.490       .  S
C306       C2000   1.486       .  S
C307        C957   1.492       .  S
C308        C929   1.495       .  S
O309       Ni317   1.943       .  S
O309        C319   1.287       .  A
O310       Ni317   1.942       .  S
O310        C320   1.286       .  A
O311       Ni317   1.905       .  S
O311        C321   1.278       .  A
O312       Ni317   1.908       .  S
O312        C322   1.278       .  A
O313       Ni318   1.933       .  S
O313        C322   1.285       .  A
O314       Ni318   1.932       .  S
O314        C321   1.285       .  A
O315       Ni318   1.908       .  S
O315        C320   1.279       .  A
O316       Ni318   1.912       .  S
O316        C319   1.279       .  A
Ni317      Ni318   2.387       .  S
C319        C901   1.498       .  S
C320        C873   1.491       .  S
C321       C1888   1.489       .  S
C322       C1468   1.489       .  S
O323       Ni331   1.948       .  S
O323        C333   1.288       .  A
O324       Ni331   1.944       .  S
O324        C334   1.287       .  A
O325       Ni331   1.902       .  S
O325        C335   1.277       .  A
O326       Ni331   1.911       .  S
O326        C336   1.278       .  A
O327       Ni332   1.938       .  S
O327        C336   1.286       .  A
O328       Ni332   1.941       .  S
O328        C335   1.286       .  A
O329       Ni332   1.905       .  S
O329        C334   1.278       .  A
O330       Ni332   1.908       .  S
O330        C333   1.278       .  A
Ni331      Ni332   2.382       .  S
C333        C908   1.500       .  S
C334       C1552   1.515       .  S
C335        C852   1.487       .  S
C336        C964   1.493       .  S
O337       Ni345   1.942       .  S
O337        C347   1.287       .  A
O338       Ni345   1.943       .  S
O338        C348   1.287       .  A
O339       Ni345   1.903       .  S
O339        C349   1.277       .  A
O340       Ni345   1.903       .  S
O340        C350   1.277       .  A
O341       Ni346   1.938       .  S
O341        C350   1.286       .  A
O342       Ni346   1.939       .  S
O342        C349   1.286       .  A
O343       Ni346   1.902       .  S
O343        C348   1.277       .  A
O344       Ni346   1.901       .  S
O344        C347   1.277       .  A
Ni345      Ni346   2.388       .  S
C347        C789   1.487       .  S
C348       C1937   1.490       .  S
C349        C992   1.489       .  S
C350        C817   1.491       .  S
O351       Ni359   1.932       .  S
O351        C361   1.284       .  A
O352       Ni359   1.929       .  S
O352        C362   1.284       .  A
O353       Ni359   1.908       .  S
O353        C363   1.279       .  A
O354       Ni359   1.911       .  S
O354        C364   1.279       .  A
O355       Ni360   1.929       .  S
O355        C364   1.284       .  A
O356       Ni360   1.933       .  S
O356        C363   1.284       .  A
O357       Ni360   1.906       .  S
O357        C362   1.279       .  A
O358       Ni360   1.908       .  S
O358        C361   1.279       .  A
Ni359      Ni360   2.389       .  S
C361        C796   1.487       .  S
C362       C1405   1.490       .  S
C363       C1517   1.484   1_556  S
C364        C761   1.484       .  S
O365       Ni373   1.946       .  S
O365        C375   1.288       .  A
O366       Ni373   1.948       .  S
O366        C376   1.289       .  A
O367       Ni373   1.912       .  S
O367        C377   1.278       .  A
O368       Ni373   1.908       .  S
O368        C378   1.278       .  A
O369       Ni374   1.939       .  S
O369        C378   1.286       .  A
O370       Ni374   1.940       .  S
O370        C377   1.287       .  A
O371       Ni374   1.902       .  S
O371        C376   1.277       .  A
O372       Ni374   1.899       .  S
O372        C375   1.276       .  A
Ni373      Ni374   2.382       .  S
C375        C733   1.489       .  S
C376       C2168   1.516       .  S
C377        C705   1.492       .  S
C378        C880   1.492       .  S
O379       Ni387   1.938       .  S
O379        C389   1.284       .  A
O380       Ni387   1.942       .  S
O380        C390   1.285       .  A
O381       Ni387   1.912       .  S
O381        C391   1.280       .  A
O382       Ni387   1.913       .  S
O382        C392   1.280       .  A
O383       Ni388   1.936       .  S
O383        C392   1.285       .  A
O384       Ni388   1.935       .  S
O384        C391   1.286       .  A
O385       Ni388   1.911       .  S
O385        C390   1.279       .  A
O386       Ni388   1.914       .  S
O386        C389   1.279       .  A
Ni387      Ni388   2.383       .  S
C389        C740   1.488       .  S
C390       C1132   1.492       .  S
C391        C768   1.510       .  S
C392       C1972   1.499       .  S
O393       Ni401   1.932       .  S
O393        C403   1.283       .  A
O394       Ni401   1.926       .  S
O394        C404   1.282       .  A
O395       Ni401   1.903       .  S
O395        C405   1.278       .  A
O396       Ni401   1.910       .  S
O396        C406   1.280       .  A
O397       Ni402   1.937       .  S
O397        C406   1.286       .  A
O398       Ni402   1.936       .  S
O398        C405   1.286       .  A
O399       Ni402   1.911       .  S
O399        C404   1.279       .  A
O400       Ni402   1.916       .  S
O400        C403   1.279       .  A
Ni401      Ni402   2.385       .  S
C403        C677   1.485       .  S
C404       C2476   1.478       .  S
C405       C1209   1.506       .  S
C406        C712   1.501       .  S
O407       Ni415   1.942       .  S
O407        C417   1.287       .  A
O408       Ni415   1.946       .  S
O408        C418   1.287       .  A
O409       Ni415   1.914       .  S
O409        C419   1.279       .  A
O410       Ni415   1.914       .  S
O410        C420   1.280       .  A
O411       Ni416   1.944       .  S
O411        C420   1.287       .  A
O412       Ni416   1.948       .  S
O412        C419   1.287       .  A
O413       Ni416   1.900       .  S
O413        C418   1.277       .  A
O414       Ni416   1.902       .  S
O414        C417   1.276       .  A
Ni415      Ni416   2.381       .  S
C417        C684   1.488       .  S
C418        C936   1.515       .  S
C419       C1832   1.498       .  S
C420        C649   1.501       .  S
O421       Ni429   1.940       .  S
O421        C431   1.285       .  A
O422       Ni429   1.935       .  S
O422        C432   1.285       .  A
O423       Ni429   1.919       .  S
O423        C433   1.281       .  A
O424       Ni429   1.916       .  S
O424        C434   1.280       .  A
O425       Ni430   1.935       .  S
O425        C434   1.284       .  A
O426       Ni430   1.938       .  S
O426        C433   1.286       .  A
O427       Ni430   1.905       .  S
O427        C432   1.278       .  A
O428       Ni430   1.902       .  S
O428        C431   1.278       .  A
Ni429      Ni430   2.381       .  S
C431        C621   1.487       .  S
C432       C1349   1.513       .  S
C433        C656   1.508       .  S
C434       C1720   1.489       .  S
O435       Ni443   1.932       .  S
O435        C445   1.284       .  A
O436       Ni443   1.931       .  S
O436        C446   1.284       .  A
O437       Ni443   1.916       .  S
O437        C447   1.281       .  A
O438       Ni443   1.912       .  S
O438        C448   1.280       .  A
O439       Ni444   1.933       .  S
O439        C448   1.284       .  A
O440       Ni444   1.935       .  S
O440        C447   1.285       .  A
O441       Ni444   1.908       .  S
O441        C446   1.279       .  A
O442       Ni444   1.910       .  S
O442        C445   1.279       .  A
Ni443      Ni444   2.388       .  S
C445        C628   1.486       .  S
C446       C2077   1.484       .  S
C447        C593   1.499       .  S
C448       C1041   1.493   1_455  S
O449       Ni457   1.930       .  S
O449        C459   1.284       .  A
O450       Ni457   1.931       .  S
O450        C460   1.284       .  A
O451       Ni457   1.905       .  S
O451        C461   1.279       .  A
O452       Ni457   1.907       .  S
O452        C462   1.278       .  A
O453       Ni458   1.936       .  S
O453        C462   1.285       .  A
O454       Ni458   1.938       .  S
O454        C461   1.286       .  A
O455       Ni458   1.899       .  S
O455        C460   1.277       .  A
O456       Ni458   1.906       .  S
O456        C459   1.278       .  A
Ni457      Ni458   2.389       .  S
C459        C565   1.483       .  S
C460       C1188   1.480       .  S
C461       C2329   1.497       .  S
C462        C544   1.487       .  S
O463       Ni471   1.935       .  S
O463        C473   1.284       .  A
O464       Ni471   1.927       .  S
O464        C474   1.282       .  A
O465       Ni471   1.912       .  S
O465        C475   1.280       .  A
O466       Ni471   1.919       .  S
O466        C476   1.281       .  A
O467       Ni472   1.939       .  S
O467        C476   1.287       .  A
O468       Ni472   1.936       .  S
O468        C475   1.285       .  A
O469       Ni472   1.908       .  S
O469        C474   1.278       .  A
O470       Ni472   1.906       .  S
O470        C473   1.278       .  A
Ni471      Ni472   2.385       .  S
C473        C572   1.485       .  S
C474       C1636   1.476       .  S
C475       C1440   1.499       .  S
C476        C600   1.515       .  S
O477       Ni485   1.933       .  S
O477        C487   1.284       .  A
O478       Ni485   1.935       .  S
O478        C488   1.284       .  A
O479       Ni485   1.911       .  S
O479        C489   1.280       .  A
O480       Ni485   1.912       .  S
O480        C490   1.280       .  A
O481       Ni486   1.935       .  S
O481        C490   1.285       .  A
O482       Ni486   1.933       .  S
O482        C489   1.285       .  A
O483       Ni486   1.908       .  S
O483        C488   1.278       .  A
O484       Ni486   1.907       .  S
O484        C487   1.279       .  A
Ni485      Ni486   2.387       .  S
C487        C516   1.487       .  S
C488        C845   1.484       .  S
C489        C537   1.498       .  S
C490       C2224   1.494       .  S
O491       Ni499   1.933       .  S
O491        C501   1.285       .  A
O492       Ni499   1.932       .  S
O492        C502   1.285       .  A
O493       Ni499   1.912       .  S
O493        C503   1.279       .  A
O494       Ni499   1.910       .  S
O494        C504   1.279       .  A
O495       Ni500   1.930       .  S
O495        C504   1.283       .  A
O496       Ni500   1.930       .  S
O496        C503   1.284       .  A
O497       Ni500   1.910       .  S
O497        C502   1.280       .  A
O498       Ni500   1.909       .  S
O498        C501   1.279       .  A
Ni499      Ni500   2.388       .  S
C501        C509   1.494       .  S
C502       C1685   1.493       .  S
C503        C824   1.488       .  S
C504       C1272   1.484       .  S
C505        C506   1.411       .  A
C505        C510   1.412       .  A
C505        C523   1.451       .  S
C506        C511   1.500       .  S
C506        C507   1.410       .  A
C507        C508   1.414       .  A
C507        C512   1.450       .  S
C508        C509   1.417       .  A
C508        C524   1.450       .  S
C509        C510   1.418       .  A
C510        C513   1.452       .  S
C511        C514   1.413       .  A
C511        C518   1.409       .  A
C512        N529   1.157       .  T
C513        N531   1.157       .  T
C514        C515   1.414       .  A
C514        C519   1.450       .  S
C515        C516   1.413       .  A
C515        C521   1.450       .  S
C516        C517   1.415       .  A
C517        C518   1.410       .  A
C517        C520   1.452       .  S
C518        C522   1.450       .  S
C519        N526   1.157       .  T
C520        N527   1.157       .  T
C521        N525   1.157       .  T
C522        N528   1.157       .  T
C523        N532   1.157       .  T
C524        N530   1.157       .  T
C533        C534   1.408       .  A
C533        C538   1.411       .  A
C533        C551   1.452       .  S
C534        C539   1.501       .  S
C534        C535   1.411       .  A
C535        C536   1.416       .  A
C535        C540   1.450       .  S
C536        C537   1.418       .  A
C536        C552   1.451       .  S
C537        C538   1.420       .  A
C538        C541   1.451       .  S
C539        C542   1.411       .  A
C539        C546   1.412       .  A
C540        N557   1.158       .  T
C541        N559   1.158       .  T
C542        C543   1.412       .  A
C542        C547   1.451       .  S
C543        C544   1.415       .  A
C543        C549   1.451       .  S
C544        C545   1.413       .  A
C545        C546   1.414       .  A
C545        C548   1.451       .  S
C546        C550   1.450       .  S
C547        N554   1.157       .  T
C548        N555   1.157       .  T
C549        N553   1.158       .  T
C550        N556   1.157       .  T
C551        N560   1.157       .  T
C552        N558   1.157       .  T
C561        C562   1.411   1_545  A
C561        C566   1.410       .  A
C561        C579   1.451   1_545  S
C562        C567   1.496       .  S
C562        C563   1.411   1_565  A
C563        C564   1.413       .  A
C563        C568   1.449       .  S
C564        C565   1.413       .  A
C564        C580   1.450       .  S
C565        C566   1.414       .  A
C566        C569   1.452       .  S
C567        C570   1.408       .  A
C567        C574   1.412       .  A
C568        N585   1.157   1_545  T
C569        N587   1.157       .  T
C570        C571   1.410       .  A
C570        C575   1.451       .  S
C571        C572   1.417       .  A
C571        C577   1.451       .  S
C572        C573   1.411       .  A
C573        C574   1.412       .  A
C573        C576   1.448       .  S
C574        C578   1.450       .  S
C575        N582   1.157       .  T
C576        N583   1.156       .  T
C577        N581   1.157       .  T
C578        N584   1.157       .  T
C579        N588   1.157       .  T
C580        N586   1.157       .  T
C589        C590   1.412       .  A
C589        C594   1.415       .  A
C589        C607   1.450       .  S
C590        C595   1.511       .  S
C590        C591   1.414       .  A
C591        C592   1.416       .  A
C591        C596   1.450       .  S
C592        C593   1.415       .  A
C592        C608   1.450       .  S
C593        C594   1.419       .  A
C594        C597   1.452       .  S
C595        C598   1.410       .  A
C595        C602   1.411       .  A
C596        N613   1.157       .  T
C597        N615   1.157       .  T
C598        C599   1.416       .  A
C598        C603   1.452       .  S
C599        C600   1.426       .  A
C599        C605   1.451       .  S
C600        C601   1.424       .  A
C601        C602   1.418       .  A
C601        C604   1.450       .  S
C602        C606   1.451       .  S
C603        N610   1.158       .  T
C604        N611   1.158       .  T
C605        N609   1.157       .  T
C606        N612   1.157       .  T
C607        N616   1.157       .  T
C608        N614   1.158       .  T
C617        C618   1.411       .  A
C617        C622   1.409       .  A
C617        C635   1.451       .  S
C618        C623   1.500       .  S
C618        C619   1.412       .  A
C619        C620   1.416       .  A
C619        C624   1.450       .  S
C620        C621   1.414       .  A
C620        C636   1.450       .  S
C621        C622   1.414       .  A
C622        C625   1.452       .  S
C623        C626   1.413       .  A
C623        C630   1.409       .  A
C624        N641   1.157       .  T
C625        N643   1.157       .  T
C626        C627   1.415       .  A
C626        C631   1.450       .  S
C627        C628   1.412   1_655  A
C627        C633   1.450   1_655  S
C628        C629   1.415   1_455  A
C629        C630   1.410       .  A
C629        C632   1.452       .  S
C630        C634   1.451       .  S
C631        N638   1.157       .  T
C632        N639   1.157       .  T
C633        N637   1.157       .  T
C634        N640   1.157       .  T
C635        N644   1.157   1_655  T
C636        N642   1.157       .  T
C645        C646   1.409   1_455  A
C645        C650   1.412       .  A
C645        C663   1.452       .  S
C646        C651   1.508       .  S
C646        C647   1.414       .  A
C647        C648   1.420       .  A
C647        C652   1.449       .  S
C648        C649   1.417   1_655  A
C648        C664   1.450       .  S
C649        C650   1.418       .  A
C650        C653   1.448       .  S
C651        C654   1.411       .  A
C651        C658   1.410       .  A
C652        N669   1.157       .  T
C653        N671   1.156       .  T
C654        C655   1.417       .  A
C654        C659   1.451       .  S
C655        C656   1.420       .  A
C655        C661   1.449       .  S
C656        C657   1.422       .  A
C657        C658   1.416       .  A
C657        C660   1.451       .  S
C658        C662   1.450       .  S
C659        N666   1.157   1_655  T
C660        N667   1.157       .  T
C661        N665   1.157       .  T
C662        N668   1.157       .  T
C663        N672   1.157       .  T
C664        N670   1.158       .  T
C673        C674   1.415       .  A
C673        C678   1.413       .  A
C673        C691   1.450       .  S
C674        C679   1.505   1_655  S
C674        C675   1.412       .  A
C675        C676   1.413       .  A
C675        C680   1.450   1_655  S
C676        C677   1.413       .  A
C676        C692   1.449       .  S
C677        C678   1.410       .  A
C678        C681   1.450       .  S
C679        C682   1.412       .  A
C679        C686   1.415       .  A
C680        N697   1.157       .  T
C681        N699   1.157       .  T
C682        C683   1.411       .  A
C682        C687   1.451       .  S
C683        C684   1.416       .  A
C683        C689   1.452       .  S
C684        C685   1.413       .  A
C685        C686   1.416       .  A
C685        C688   1.450       .  S
C686        C690   1.450   1_455  S
C687        N694   1.157       .  T
C688        N695   1.157       .  T
C689        N693   1.157       .  T
C690        N696   1.157       .  T
C691        N700   1.157       .  T
C692        N698   1.157       .  T
C701        C702   1.410       .  A
C701        C706   1.412       .  A
C701        C719   1.451       .  S
C702        C707   1.503       .  S
C702        C703   1.411       .  A
C703        C704   1.416       .  A
C703        C708   1.450       .  S
C704        C705   1.417       .  A
C704        C720   1.451       .  S
C705        C706   1.413       .  A
C706        C709   1.447       .  S
C707        C710   1.408       .  A
C707        C714   1.412       .  A
C708        N725   1.157       .  T
C709        N727   1.156       .  T
C710        C711   1.411       .  A
C710        C715   1.452       .  S
C711        C712   1.422       .  A
C711        C717   1.452       .  S
C712        C713   1.418       .  A
C713        C714   1.417       .  A
C713        C716   1.450       .  S
C714        C718   1.450       .  S
C715        N722   1.157       .  T
C716        N723   1.157       .  T
C717        N721   1.157       .  T
C718        N724   1.157       .  T
C719        N728   1.157       .  T
C720        N726   1.158       .  T
C729        C730   1.416   1_545  A
C729        C734   1.417       .  A
C729        C747   1.450       .  S
C730        C735   1.510       .  S
C730        C731   1.415   1_565  A
C731        C732   1.412       .  A
C731        C736   1.451   1_545  S
C732        C733   1.414       .  A
C732        C748   1.452       .  S
C733        C734   1.413       .  A
C734        C737   1.450       .  S
C735        C738   1.414       .  A
C735        C742   1.417       .  A
C736        N753   1.157       .  T
C737        N755   1.157       .  T
C738        C739   1.414       .  A
C738        C743   1.450       .  S
C739        C740   1.411       .  A
C739        C745   1.449       .  S
C740        C741   1.411       .  A
C741        C742   1.415       .  A
C741        C744   1.450       .  S
C742        C746   1.450       .  S
C743        N750   1.157       .  T
C744        N751   1.157       .  T
C745        N749   1.157       .  T
C746        N752   1.157       .  T
C747        N756   1.157   1_545  T
C748        N754   1.157       .  T
C757        C758   1.411       .  A
C757        C762   1.411       .  A
C757        C775   1.450       .  S
C758        C763   1.500       .  S
C758        C759   1.412       .  A
C759        C760   1.413       .  A
C759        C764   1.450       .  S
C760        C761   1.414       .  A
C760        C776   1.451       .  S
C761        C762   1.413       .  A
C762        C765   1.451       .  S
C763        C766   1.406       .  A
C763        C770   1.409       .  A
C764        N781   1.157       .  T
C765        N783   1.157       .  T
C766        C767   1.412       .  A
C766        C771   1.453       .  S
C767        C768   1.427       .  A
C767        C773   1.451       .  S
C768        C769   1.423       .  A
C769        C770   1.416       .  A
C769        C772   1.451       .  S
C770        C774   1.451       .  S
C771        N778   1.157       .  T
C772        N779   1.157       .  T
C773        N777   1.158       .  T
C774        N780   1.158       .  T
C775        N784   1.157       .  T
C776        N782   1.158       .  T
C785        C786   1.410       .  A
C785        C790   1.410       .  A
C785        C803   1.451       .  S
C786        C791   1.500       .  S
C786        C787   1.413       .  A
C787        C788   1.415       .  A
C787        C792   1.449       .  S
C788        C789   1.412       .  A
C788        C804   1.450       .  S
C789        C790   1.417       .  A
C790        C793   1.452       .  S
C791        C794   1.411       .  A
C791        C798   1.411       .  A
C792        N809   1.157       .  T
C793        N811   1.157       .  T
C794        C795   1.411       .  A
C794        C799   1.451       .  S
C795        C796   1.414       .  A
C795        C801   1.452       .  S
C796        C797   1.415       .  A
C797        C798   1.414       .  A
C797        C800   1.451       .  S
C798        C802   1.450       .  S
C799        N806   1.157       .  T
C800        N807   1.157       .  T
C801        N805   1.157       .  T
C802        N808   1.157       .  T
C803        N812   1.157       .  T
C804        N810   1.157       .  T
C813        C814   1.413   1_556  A
C813        C818   1.414       .  A
C813        C831   1.450       .  S
C814        C819   1.502       .  S
C814        C815   1.410   1_554  A
C815        C816   1.411       .  A
C815        C820   1.451   1_556  S
C816        C817   1.418       .  A
C816        C832   1.452       .  S
C817        C818   1.414       .  A
C818        C821   1.450       .  S
C819        C822   1.411       .  A
C819        C826   1.413       .  A
C820        N837   1.157       .  T
C821        N839   1.157       .  T
C822        C823   1.411       .  A
C822        C827   1.451   1_554  S
C823        C824   1.415       .  A
C823        C829   1.451       .  S
C824        C825   1.414       .  A
C825        C826   1.414       .  A
C825        C828   1.451       .  S
C826        C830   1.450       .  S
C827        N834   1.157       .  T
C828        N835   1.157       .  T
C829        N833   1.157       .  T
C830        N836   1.157       .  T
C831        N840   1.157       .  T
C832        N838   1.158       .  T
C841        C842   1.411       .  A
C841        C846   1.412       .  A
C841        C859   1.451       .  S
C842        C847   1.500       .  S
C842        C843   1.413       .  A
C843        C844   1.414       .  A
C843        C848   1.450       .  S
C844        C845   1.411       .  A
C844        C860   1.450       .  S
C845        C846   1.414       .  A
C846        C849   1.451       .  S
C847        C850   1.413   1_545  A
C847        C854   1.410       .  A
C848        N865   1.157       .  T
C849        N867   1.158       .  T
C850        C851   1.418       .  A
C850        C855   1.449       .  S
C851        C852   1.414   1_554  A
C851        C857   1.449       .  S
C852        C853   1.415       .  A
C853        C854   1.407   1_566  A
C853        C856   1.452   1_565  S
C854        C858   1.452   1_554  S
C855        N862   1.158       .  T
C856        N863   1.157       .  T
C857        N861   1.157       .  T
C858        N864   1.157       .  T
C859        N868   1.157       .  T
C860        N866   1.157       .  T
C869        C870   1.413       .  A
C869        C874   1.419       .  A
C869        C887   1.449       .  S
C870        C875   1.505       .  S
C870        C871   1.412       .  A
C871        C872   1.410       .  A
C871        C876   1.452       .  S
C872        C873   1.415       .  A
C872        C888   1.452       .  S
C873        C874   1.415       .  A
C874        C877   1.449       .  S
C875        C878   1.413       .  A
C875        C882   1.411       .  A
C876        N893   1.157       .  T
C877        N895   1.158       .  T
C878        C879   1.415       .  A
C878        C883   1.450       .  S
C879        C880   1.415       .  A
C879        C885   1.451       .  S
C880        C881   1.415       .  A
C881        C882   1.413       .  A
C881        C884   1.450       .  S
C882        C886   1.451       .  S
C883        N890   1.157       .  T
C884        N891   1.157       .  T
C885        N889   1.157       .  T
C886        N892   1.157       .  T
C887        N896   1.157       .  T
C888        N894   1.157       .  T
C897        C898   1.414       .  A
C897        C902   1.420       .  A
C897        C915   1.449       .  S
C898        C903   1.510   1_545  S
C898        C899   1.413   1_545  A
C899        C900   1.413   1_565  A
C899        C904   1.451       .  S
C900        C901   1.415       .  A
C900        C916   1.451   1_545  S
C901        C902   1.416       .  A
C902        C905   1.450       .  S
C903        C906   1.415       .  A
C903        C910   1.411       .  A
C904        N921   1.157       .  T
C905        N923   1.157       .  T
C906        C907   1.421       .  A
C906        C911   1.449       .  S
C907        C908   1.415       .  A
C907        C913   1.449       .  S
C908        C909   1.419       .  A
C909        C910   1.412       .  A
C909        C912   1.452       .  S
C910        C914   1.451   1_565  S
C911        N918   1.157       .  T
C912        N919   1.157       .  T
C913        N917   1.157       .  T
C914        N920   1.157       .  T
C915        N924   1.157       .  T
C916        N922   1.157       .  T
C925        C926   1.412       .  A
C925        C930   1.415       .  A
C925        C943   1.450       .  S
C926        C931   1.504       .  S
C926        C927   1.410       .  A
C927        C928   1.412       .  A
C927        C932   1.450       .  S
C928        C929   1.417       .  A
C928        C944   1.452       .  S
C929        C930   1.416       .  A
C930        C933   1.450       .  S
C931        C934   1.409       .  A
C931        C938   1.407       .  A
C932        N949   1.157       .  T
C933        N951   1.158       .  T
C934        C935   1.419       .  A
C934        C939   1.450       .  S
C935        C936   1.425       .  A
C935        C941   1.449       .  S
C936        C937   1.429       .  A
C937        C938   1.410       .  A
C937        C940   1.453       .  S
C938        C942   1.453       .  S
C939        N946   1.157       .  T
C940        N947   1.158       .  T
C941        N945   1.157       .  T
C942        N948   1.157       .  T
C943        N952   1.157       .  T
C944        N950   1.157       .  T
C953        C954   1.412       .  A
C953        C958   1.412       .  A
C953        C971   1.451       .  S
C954        C959   1.504       .  S
C954        C955   1.413       .  A
C955        C956   1.415       .  A
C955        C960   1.450       .  S
C956        C957   1.415       .  A
C956        C972   1.450       .  S
C957        C958   1.416       .  A
C958        C961   1.452       .  S
C959        C962   1.414       .  A
C959        C966   1.410       .  A
C960        N977   1.157       .  T
C961        N979   1.157       .  T
C962        C963   1.416       .  A
C962        C967   1.449       .  S
C963        C964   1.414       .  A
C963        C969   1.450       .  S
C964        C965   1.416       .  A
C965        C966   1.411       .  A
C965        C968   1.449       .  S
C966        C970   1.452       .  S
C967        N974   1.157       .  T
C968        N975   1.156       .  T
C969        N973   1.157       .  T
C970        N976   1.157       .  T
C971        N980   1.157       .  T
C972        N978   1.157       .  T
C981        C982   1.410       .  A
C981        C986   1.410       .  A
C981        C999   1.450       .  S
C982        C987   1.500       .  S
C982        C983   1.413       .  A
C983        C984   1.414       .  A
C983        C988   1.450       .  S
C984        C985   1.413       .  A
C984       C1000   1.451       .  S
C985        C986   1.415       .  A
C986        C989   1.451       .  S
C987        C990   1.412       .  A
C987        C994   1.410       .  A
C988       N1005   1.157       .  T
C989       N1007   1.157       .  T
C990        C991   1.416       .  A
C990        C995   1.448       .  S
C991        C992   1.413       .  A
C991        C997   1.449       .  S
C992        C993   1.417       .  A
C993        C994   1.408       .  A
C993        C996   1.453       .  S
C994        C998   1.452       .  S
C995       N1002   1.157       .  T
C996       N1003   1.157       .  T
C997       N1001   1.157       .  T
C998       N1004   1.157       .  T
C999       N1008   1.157       .  T
C1000      N1006   1.157       .  T
C1009      C1010   1.414       .  A
C1009      C1014   1.415       .  A
C1009      C1027   1.449       .  S
C1010      C1015   1.502   1_655  S
C1010      C1011   1.410       .  A
C1011      C1012   1.412       .  A
C1011      C1016   1.451       .  S
C1012      C1013   1.417       .  A
C1012      C1028   1.452       .  S
C1013      C1014   1.412       .  A
C1014      C1017   1.450       .  S
C1015      C1018   1.411       .  A
C1015      C1022   1.412       .  A
C1016      N1033   1.157       .  T
C1017      N1035   1.157       .  T
C1018      C1019   1.411       .  A
C1018      C1023   1.451   1_455  S
C1019      C1020   1.415       .  A
C1019      C1025   1.452       .  S
C1020      C1021   1.414       .  A
C1021      C1022   1.415       .  A
C1021      C1024   1.450       .  S
C1022      C1026   1.449       .  S
C1023      N1030   1.157       .  T
C1024      N1031   1.157       .  T
C1025      N1029   1.157       .  T
C1026      N1032   1.157   1_455  T
C1027      N1036   1.157       .  T
C1028      N1034   1.157       .  T
C1037      C1038   1.412       .  A
C1037      C1042   1.417   1_655  A
C1037      C1055   1.449       .  S
C1038      C1043   1.501       .  S
C1038      C1039   1.411       .  A
C1039      C1040   1.409       .  A
C1039      C1044   1.452       .  S
C1040      C1041   1.417       .  A
C1040      C1056   1.452       .  S
C1041      C1042   1.416   1_655  A
C1042      C1045   1.450       .  S
C1043      C1046   1.413       .  A
C1043      C1050   1.411       .  A
C1044      N1061   1.158       .  T
C1045      N1063   1.158       .  T
C1046      C1047   1.413       .  A
C1046      C1051   1.450       .  S
C1047      C1048   1.411       .  A
C1047      C1053   1.451       .  S
C1048      C1049   1.413       .  A
C1049      C1050   1.413       .  A
C1049      C1052   1.449       .  S
C1050      C1054   1.450       .  S
C1051      N1058   1.157       .  T
C1052      N1059   1.157       .  T
C1053      N1057   1.157       .  T
C1054      N1060   1.157       .  T
C1055      N1064   1.157       .  T
C1056      N1062   1.157       .  T
C1065      C1066   1.408       .  A
C1065      C1070   1.413       .  A
C1065      C1083   1.451       .  S
C1066      C1071   1.496       .  S
C1066      C1067   1.405       .  A
C1067      C1068   1.411       .  A
C1067      C1072   1.453       .  S
C1068      C1069   1.428       .  A
C1068      C1084   1.452       .  S
C1069      C1070   1.424       .  A
C1070      C1073   1.451       .  S
C1071      C1074   1.412       .  A
C1071      C1078   1.410       .  A
C1072      N1089   1.157       .  T
C1073      N1091   1.157       .  T
C1074      C1075   1.411       .  A
C1074      C1079   1.450       .  S
C1075      C1076   1.411       .  A
C1075      C1081   1.451       .  S
C1076      C1077   1.415       .  A
C1077      C1078   1.410       .  A
C1077      C1080   1.452       .  S
C1078      C1082   1.451       .  S
C1079      N1086   1.157       .  T
C1080      N1087   1.158       .  T
C1081      N1085   1.157       .  T
C1082      N1088   1.157       .  T
C1083      N1092   1.157       .  T
C1084      N1090   1.158       .  T
C1093      C1094   1.411       .  A
C1093      C1098   1.415       .  A
C1093      C1111   1.450       .  S
C1094      C1099   1.500       .  S
C1094      C1095   1.411       .  A
C1095      C1096   1.410       .  A
C1095      C1100   1.451       .  S
C1096      C1097   1.414       .  A
C1096      C1112   1.451       .  S
C1097      C1098   1.415       .  A
C1098      C1101   1.451       .  S
C1099      C1102   1.412       .  A
C1099      C1106   1.409       .  A
C1100      N1117   1.157       .  T
C1101      N1119   1.157       .  T
C1102      C1103   1.414       .  A
C1102      C1107   1.450       .  S
C1103      C1104   1.411       .  A
C1103      C1109   1.448       .  S
C1104      C1105   1.417       .  A
C1105      C1106   1.412       .  A
C1105      C1108   1.451       .  S
C1106      C1110   1.451       .  S
C1107      N1114   1.157       .  T
C1108      N1115   1.157       .  T
C1109      N1113   1.157       .  T
C1110      N1116   1.157       .  T
C1111      N1120   1.157       .  T
C1112      N1118   1.158       .  T
C1121      C1122   1.411       .  A
C1121      C1126   1.410       .  A
C1121      C1139   1.450       .  S
C1122      C1127   1.501       .  S
C1122      C1123   1.413       .  A
C1123      C1124   1.414       .  A
C1123      C1128   1.450       .  S
C1124      C1125   1.414       .  A
C1124      C1140   1.451       .  S
C1125      C1126   1.413       .  A
C1126      C1129   1.452       .  S
C1127      C1130   1.411       .  A
C1127      C1134   1.411       .  A
C1128      N1145   1.157       .  T
C1129      N1147   1.157       .  T
C1130      C1131   1.417       .  A
C1130      C1135   1.450       .  S
C1131      C1132   1.415       .  A
C1131      C1137   1.447       .  S
C1132      C1133   1.415       .  A
C1133      C1134   1.410       .  A
C1133      C1136   1.451       .  S
C1134      C1138   1.452       .  S
C1135      N1142   1.158       .  T
C1136      N1143   1.158       .  T
C1137      N1141   1.156       .  T
C1138      N1144   1.157       .  T
C1139      N1148   1.157       .  T
C1140      N1146   1.158       .  T
C1149      C1150   1.409       .  A
C1149      C1154   1.413       .  A
C1149      C1167   1.451       .  S
C1150      C1155   1.499       .  S
C1150      C1151   1.409       .  A
C1151      C1152   1.412       .  A
C1151      C1156   1.451       .  S
C1152      C1153   1.420       .  A
C1152      C1168   1.452       .  S
C1153      C1154   1.415       .  A
C1154      C1157   1.446       .  S
C1155      C1158   1.409       .  A
C1155      C1162   1.411       .  A
C1156      N1173   1.157       .  T
C1157      N1175   1.156       .  T
C1158      C1159   1.411       .  A
C1158      C1163   1.451       .  S
C1159      C1160   1.416       .  A
C1159      C1165   1.451       .  S
C1160      C1161   1.417       .  A
C1161      C1162   1.414       .  A
C1161      C1164   1.451       .  S
C1162      C1166   1.450       .  S
C1163      N1170   1.157       .  T
C1164      N1171   1.157       .  T
C1165      N1169   1.158       .  T
C1166      N1172   1.158       .  T
C1167      N1176   1.157       .  T
C1168      N1174   1.157       .  T
C1177      C1178   1.410       .  A
C1177      C1182   1.409       .  A
C1177      C1195   1.450       .  S
C1178      C1183   1.493       .  S
C1178      C1179   1.411       .  A
C1179      C1180   1.411       .  A
C1179      C1184   1.451       .  S
C1180      C1181   1.413       .  A
C1180      C1196   1.451       .  S
C1181      C1182   1.411       .  A
C1182      C1185   1.449       .  S
C1183      C1186   1.410       .  A
C1183      C1190   1.411       .  A
C1184      N1201   1.157       .  T
C1185      N1203   1.157       .  T
C1186      C1187   1.406       .  A
C1186      C1191   1.452       .  S
C1187      C1188   1.414       .  A
C1187      C1193   1.453       .  S
C1188      C1189   1.413       .  A
C1189      C1190   1.413       .  A
C1189      C1192   1.450       .  S
C1190      C1194   1.449       .  S
C1191      N1198   1.157       .  T
C1192      N1199   1.157       .  T
C1193      N1197   1.157       .  T
C1194      N1200   1.157       .  T
C1195      N1204   1.157       .  T
C1196      N1202   1.157       .  T
C1205      C1206   1.409       .  A
C1205      C1210   1.409   1_455  A
C1205      C1223   1.454       .  S
C1206      C1211   1.501       .  S
C1206      C1207   1.410   1_455  A
C1207      C1208   1.417       .  A
C1207      C1212   1.450       .  S
C1208      C1209   1.423       .  A
C1208      C1224   1.450       .  S
C1209      C1210   1.425       .  A
C1210      C1213   1.453       .  S
C1211      C1214   1.414       .  A
C1211      C1218   1.410       .  A
C1212      N1229   1.157       .  T
C1213      N1231   1.157   1_655  T
C1214      C1215   1.414       .  A
C1214      C1219   1.450       .  S
C1215      C1216   1.412       .  A
C1215      C1221   1.450       .  S
C1216      C1217   1.414       .  A
C1217      C1218   1.410       .  A
C1217      C1220   1.451       .  S
C1218      C1222   1.451       .  S
C1219      N1226   1.157       .  T
C1220      N1227   1.157       .  T
C1221      N1225   1.157       .  T
C1222      N1228   1.157       .  T
C1223      N1232   1.157       .  T
C1224      N1230   1.158       .  T
C1233      C1234   1.415       .  A
C1233      C1238   1.414       .  A
C1233      C1251   1.450       .  S
C1234      C1239   1.504       .  S
C1234      C1235   1.411       .  A
C1235      C1236   1.411       .  A
C1235      C1240   1.451       .  S
C1236      C1237   1.415       .  A
C1236      C1252   1.452       .  S
C1237      C1238   1.413       .  A
C1238      C1241   1.450       .  S
C1239      C1242   1.409       .  A
C1239      C1246   1.411       .  A
C1240      N1257   1.157       .  T
C1241      N1259   1.157       .  T
C1242      C1243   1.411       .  A
C1242      C1247   1.453       .  S
C1243      C1244   1.423       .  A
C1243      C1249   1.449       .  S
C1244      C1245   1.422       .  A
C1245      C1246   1.417       .  A
C1245      C1248   1.451       .  S
C1246      C1250   1.451       .  S
C1247      N1254   1.157       .  T
C1248      N1255   1.157       .  T
C1249      N1253   1.157       .  T
C1250      N1256   1.157       .  T
C1251      N1260   1.157       .  T
C1252      N1258   1.157       .  T
C1261      C1262   1.412       .  A
C1261      C1266   1.408       .  A
C1261      C1279   1.452       .  S
C1262      C1267   1.500       .  S
C1262      C1263   1.413       .  A
C1263      C1264   1.415       .  A
C1263      C1268   1.449       .  S
C1264      C1265   1.413       .  A
C1264      C1280   1.450       .  S
C1265      C1266   1.413       .  A
C1266      C1269   1.452       .  S
C1267      C1270   1.412       .  A
C1267      C1274   1.413       .  A
C1268      N1285   1.157       .  T
C1269      N1287   1.157       .  T
C1270      C1271   1.412       .  A
C1270      C1275   1.450       .  S
C1271      C1272   1.413       .  A
C1271      C1277   1.451       .  S
C1272      C1273   1.413       .  A
C1273      C1274   1.412       .  A
C1273      C1276   1.451       .  S
C1274      C1278   1.450       .  S
C1275      N1282   1.157       .  T
C1276      N1283   1.157       .  T
C1277      N1281   1.157       .  T
C1278      N1284   1.157       .  T
C1279      N1288   1.157       .  T
C1280      N1286   1.157       .  T
C1289      C1290   1.409       .  A
C1289      C1294   1.409       .  A
C1289      C1307   1.451       .  S
C1290      C1295   1.497       .  S
C1290      C1291   1.411       .  A
C1291      C1292   1.413       .  A
C1291      C1296   1.450       .  S
C1292      C1293   1.415       .  A
C1292      C1308   1.450       .  S
C1293      C1294   1.417       .  A
C1294      C1297   1.452       .  S
C1295      C1298   1.409       .  A
C1295      C1302   1.411       .  A
C1296      N1313   1.157       .  T
C1297      N1315   1.157       .  T
C1298      C1299   1.411       .  A
C1298      C1303   1.451       .  S
C1299      C1300   1.418       .  A
C1299      C1305   1.452       .  S
C1300      C1301   1.415       .  A
C1301      C1302   1.412       .  A
C1301      C1304   1.451       .  S
C1302      C1306   1.450       .  S
C1303      N1310   1.157       .  T
C1304      N1311   1.157       .  T
C1305      N1309   1.157       .  T
C1306      N1312   1.157       .  T
C1307      N1316   1.157       .  T
C1308      N1314   1.157       .  T
C1317      C1318   1.413       .  A
C1317      C1322   1.414       .  A
C1317      C1335   1.450       .  S
C1318      C1323   1.500       .  S
C1318      C1319   1.410       .  A
C1319      C1320   1.411       .  A
C1319      C1324   1.451       .  S
C1320      C1321   1.415       .  A
C1320      C1336   1.451       .  S
C1321      C1322   1.412       .  A
C1322      C1325   1.450       .  S
C1323      C1326   1.412   1_655  A
C1323      C1330   1.411   1_655  A
C1324      N1341   1.157       .  T
C1325      N1343   1.157       .  T
C1326      C1327   1.414       .  A
C1326      C1331   1.450       .  S
C1327      C1328   1.414       .  A
C1327      C1333   1.450       .  S
C1328      C1329   1.416       .  A
C1329      C1330   1.410       .  A
C1329      C1332   1.452       .  S
C1330      C1334   1.451   1_455  S
C1331      N1338   1.157   1_455  T
C1332      N1339   1.158       .  T
C1333      N1337   1.157       .  T
C1334      N1340   1.157       .  T
C1335      N1344   1.157       .  T
C1336      N1342   1.157       .  T
C1345      C1346   1.406       .  A
C1345      C1350   1.411       .  A
C1345      C1363   1.454       .  S
C1346      C1351   1.499       .  S
C1346      C1347   1.407       .  A
C1347      C1348   1.415       .  A
C1347      C1352   1.451       .  S
C1348      C1349   1.426       .  A
C1348      C1364   1.449       .  S
C1349      C1350   1.429       .  A
C1350      C1353   1.453       .  S
C1351      C1354   1.408       .  A
C1351      C1358   1.406       .  A
C1352      N1369   1.157       .  T
C1353      N1371   1.157       .  T
C1354      C1355   1.416       .  A
C1354      C1359   1.450       .  S
C1355      C1356   1.424       .  A
C1355      C1361   1.450       .  S
C1356      C1357   1.428       .  A
C1357      C1358   1.409       .  A
C1357      C1360   1.452       .  S
C1358      C1362   1.453       .  S
C1359      N1366   1.157       .  T
C1360      N1367   1.157       .  T
C1361      N1365   1.158       .  T
C1362      N1368   1.157       .  T
C1363      N1372   1.158       .  T
C1364      N1370   1.158       .  T
C1373      C1374   1.411       .  A
C1373      C1378   1.408       .  A
C1373      C1391   1.452       .  S
C1374      C1379   1.498       .  S
C1374      C1375   1.412       .  A
C1375      C1376   1.414       .  A
C1375      C1380   1.450       .  S
C1376      C1377   1.415       .  A
C1376      C1392   1.451       .  S
C1377      C1378   1.416       .  A
C1378      C1381   1.452       .  S
C1379      C1382   1.413       .  A
C1379      C1386   1.411       .  A
C1380      N1397   1.157       .  T
C1381      N1399   1.157       .  T
C1382      C1383   1.414       .  A
C1382      C1387   1.450       .  S
C1383      C1384   1.413       .  A
C1383      C1389   1.450       .  S
C1384      C1385   1.414       .  A
C1385      C1386   1.408       .  A
C1385      C1388   1.452       .  S
C1386      C1390   1.452       .  S
C1387      N1394   1.157       .  T
C1388      N1395   1.157       .  T
C1389      N1393   1.157       .  T
C1390      N1396   1.157       .  T
C1391      N1400   1.157       .  T
C1392      N1398   1.157       .  T
C1401      C1402   1.410   1_554  A
C1401      C1406   1.408   1_554  A
C1401      C1419   1.452       .  S
C1402      C1407   1.495       .  S
C1402      C1403   1.409       .  A
C1403      C1404   1.413       .  A
C1403      C1408   1.450       .  S
C1404      C1405   1.417       .  A
C1404      C1420   1.450       .  S
C1405      C1406   1.418       .  A
C1406      C1409   1.452   1_556  S
C1407      C1410   1.409   1_556  A
C1407      C1414   1.412       .  A
C1408      N1425   1.157       .  T
C1409      N1427   1.157       .  T
C1410      C1411   1.409       .  A
C1410      C1415   1.450   1_554  S
C1411      C1412   1.414   1_565  A
C1411      C1417   1.451   1_565  S
C1412      C1413   1.413   1_545  A
C1413      C1414   1.411   1_554  A
C1413      C1416   1.451       .  S
C1414      C1418   1.451       .  S
C1415      N1422   1.157       .  T
C1416      N1423   1.157       .  T
C1417      N1421   1.157       .  T
C1418      N1424   1.157       .  T
C1419      N1428   1.157       .  T
C1420      N1426   1.157       .  T
C1429      C1430   1.411       .  A
C1429      C1434   1.413       .  A
C1429      C1447   1.451       .  S
C1430      C1435   1.503       .  S
C1430      C1431   1.413       .  A
C1431      C1432   1.415       .  A
C1431      C1436   1.449       .  S
C1432      C1433   1.413       .  A
C1432      C1448   1.449       .  S
C1433      C1434   1.417       .  A
C1434      C1437   1.452       .  S
C1435      C1438   1.412       .  A
C1435      C1442   1.409       .  A
C1436      N1453   1.157       .  T
C1437      N1455   1.157       .  T
C1438      C1439   1.419       .  A
C1438      C1443   1.449       .  S
C1439      C1440   1.418       .  A
C1439      C1445   1.450       .  S
C1440      C1441   1.420       .  A
C1441      C1442   1.409       .  A
C1441      C1444   1.452       .  S
C1442      C1446   1.453       .  S
C1443      N1450   1.158       .  T
C1444      N1451   1.158       .  T
C1445      N1449   1.157       .  T
C1446      N1452   1.157       .  T
C1447      N1456   1.158       .  T
C1448      N1454   1.157       .  T
C1457      C1458   1.414       .  A
C1457      C1462   1.416       .  A
C1457      C1475   1.450   1_565  S
C1458      C1463   1.502   1_554  S
C1458      C1459   1.411       .  A
C1459      C1460   1.410       .  A
C1459      C1464   1.452       .  S
C1460      C1461   1.417       .  A
C1460      C1476   1.452       .  S
C1461      C1462   1.413       .  A
C1462      C1465   1.450       .  S
C1463      C1466   1.413       .  A
C1463      C1470   1.412   1_565  A
C1464      N1481   1.157       .  T
C1465      N1483   1.157   1_565  T
C1466      C1467   1.414   1_565  A
C1466      C1471   1.450       .  S
C1467      C1468   1.414       .  A
C1467      C1473   1.451       .  S
C1468      C1469   1.415       .  A
C1469      C1470   1.412       .  A
C1469      C1472   1.451       .  S
C1470      C1474   1.451   1_546  S
C1471      N1478   1.157       .  T
C1472      N1479   1.157       .  T
C1473      N1477   1.157       .  T
C1474      N1480   1.157       .  T
C1475      N1484   1.157       .  T
C1476      N1482   1.158       .  T
C1485      C1486   1.413       .  A
C1485      C1490   1.417       .  A
C1485      C1503   1.450       .  S
C1486      C1491   1.504       .  S
C1486      C1487   1.410   1_565  A
C1487      C1488   1.411       .  A
C1487      C1492   1.451       .  S
C1488      C1489   1.416       .  A
C1488      C1504   1.452       .  S
C1489      C1490   1.416   1_545  A
C1490      C1493   1.450       .  S
C1491      C1494   1.410       .  A
C1491      C1498   1.413       .  A
C1492      N1509   1.157       .  T
C1493      N1511   1.158       .  T
C1494      C1495   1.412       .  A
C1494      C1499   1.451       .  S
C1495      C1496   1.419       .  A
C1495      C1501   1.452       .  S
C1496      C1497   1.415       .  A
C1497      C1498   1.417       .  A
C1497      C1500   1.450       .  S
C1498      C1502   1.450       .  S
C1499      N1506   1.157       .  T
C1500      N1507   1.157       .  T
C1501      N1505   1.158       .  T
C1502      N1508   1.157       .  T
C1503      N1512   1.157       .  T
C1504      N1510   1.157       .  T
C1513      C1514   1.414       .  A
C1513      C1518   1.413       .  A
C1513      C1531   1.450       .  S
C1514      C1519   1.503       .  S
C1514      C1515   1.412       .  A
C1515      C1516   1.412       .  A
C1515      C1520   1.450       .  S
C1516      C1517   1.413       .  A
C1516      C1532   1.451   1_554  S
C1517      C1518   1.411       .  A
C1518      C1521   1.451       .  S
C1519      C1522   1.412       .  A
C1519      C1526   1.413       .  A
C1520      N1537   1.157       .  T
C1521      N1539   1.157       .  T
C1522      C1523   1.410       .  A
C1522      C1527   1.451   1_554  S
C1523      C1524   1.415       .  A
C1523      C1529   1.452       .  S
C1524      C1525   1.414       .  A
C1525      C1526   1.416       .  A
C1525      C1528   1.450       .  S
C1526      C1530   1.449       .  S
C1527      N1534   1.157       .  T
C1528      N1535   1.157       .  T
C1529      N1533   1.157       .  T
C1530      N1536   1.157       .  T
C1531      N1540   1.157       .  T
C1532      N1538   1.157       .  T
C1541      C1542   1.413       .  A
C1541      C1546   1.413   1_456  A
C1541      C1559   1.450       .  S
C1542      C1547   1.504       .  S
C1542      C1543   1.411   1_556  A
C1543      C1544   1.413   1_455  A
C1543      C1548   1.450       .  S
C1544      C1545   1.417       .  A
C1544      C1560   1.451       .  S
C1545      C1546   1.415       .  A
C1546      C1549   1.451       .  S
C1547      C1550   1.409       .  A
C1547      C1554   1.407       .  A
C1548      N1565   1.157       .  T
C1549      N1567   1.157       .  T
C1550      C1551   1.419       .  A
C1550      C1555   1.451       .  S
C1551      C1552   1.424       .  A
C1551      C1557   1.449       .  S
C1552      C1553   1.429       .  A
C1553      C1554   1.411       .  A
C1553      C1556   1.453   1_556  S
C1554      C1558   1.454   1_556  S
C1555      N1562   1.157       .  T
C1556      N1563   1.158       .  T
C1557      N1561   1.157       .  T
C1558      N1564   1.157       .  T
C1559      N1568   1.157       .  T
C1560      N1566   1.158       .  T
C1569      C1570   1.407       .  A
C1569      C1574   1.408       .  A
C1569      C1587   1.454       .  S
C1570      C1575   1.497       .  S
C1570      C1571   1.409       .  A
C1571      C1572   1.418       .  A
C1571      C1576   1.450       .  S
C1572      C1573   1.422       .  A
C1572      C1588   1.450       .  S
C1573      C1574   1.425       .  A
C1574      C1577   1.452       .  S
C1575      C1578   1.412       .  A
C1575      C1582   1.409       .  A
C1576      N1593   1.157       .  T
C1577      N1595   1.157       .  T
C1578      C1579   1.413       .  A
C1578      C1583   1.450       .  S
C1579      C1580   1.413       .  A
C1579      C1585   1.450       .  S
C1580      C1581   1.416       .  A
C1581      C1582   1.410       .  A
C1581      C1584   1.452       .  S
C1582      C1586   1.450       .  S
C1583      N1590   1.157       .  T
C1584      N1591   1.157       .  T
C1585      N1589   1.157       .  T
C1586      N1592   1.157       .  T
C1587      N1596   1.157       .  T
C1588      N1594   1.157       .  T
C1597      C1598   1.415       .  A
C1597      C1602   1.417       .  A
C1597      C1615   1.450       .  S
C1598      C1603   1.507   1_455  S
C1598      C1599   1.411       .  A
C1599      C1600   1.411       .  A
C1599      C1604   1.451       .  S
C1600      C1601   1.420       .  A
C1600      C1616   1.453       .  S
C1601      C1602   1.413       .  A
C1602      C1605   1.447       .  S
C1603      C1606   1.414       .  A
C1603      C1610   1.414   1_655  A
C1604      N1621   1.157       .  T
C1605      N1623   1.156       .  T
C1606      C1607   1.413       .  A
C1606      C1611   1.451       .  S
C1607      C1608   1.413       .  A
C1607      C1613   1.451       .  S
C1608      C1609   1.414       .  A
C1609      C1610   1.416   1_655  A
C1609      C1612   1.450   1_655  S
C1610      C1614   1.450       .  S
C1611      N1618   1.157       .  T
C1612      N1619   1.157       .  T
C1613      N1617   1.157       .  T
C1614      N1620   1.157       .  T
C1615      N1624   1.157       .  T
C1616      N1622   1.158       .  T
C1625      C1626   1.410       .  A
C1625      C1630   1.413       .  A
C1625      C1643   1.450       .  S
C1626      C1631   1.492       .  S
C1626      C1627   1.408       .  A
C1627      C1628   1.406       .  A
C1627      C1632   1.452       .  S
C1628      C1629   1.418       .  A
C1628      C1644   1.452       .  S
C1629      C1630   1.413       .  A
C1630      C1633   1.447       .  S
C1631      C1634   1.412       .  A
C1631      C1638   1.409       .  A
C1632      N1649   1.157       .  T
C1633      N1651   1.156       .  T
C1634      C1635   1.410       .  A
C1634      C1639   1.451       .  S
C1635      C1636   1.411       .  A
C1635      C1641   1.450       .  S
C1636      C1637   1.411       .  A
C1637      C1638   1.409       .  A
C1637      C1640   1.449       .  S
C1638      C1642   1.450       .  S
C1639      N1646   1.157       .  T
C1640      N1647   1.156       .  T
C1641      N1645   1.157       .  T
C1642      N1648   1.157       .  T
C1643      N1652   1.157       .  T
C1644      N1650   1.158       .  T
C1653      C1654   1.412       .  A
C1653      C1658   1.410       .  A
C1653      C1671   1.452       .  S
C1654      C1659   1.508       .  S
C1654      C1655   1.415       .  A
C1655      C1656   1.419       .  A
C1655      C1660   1.449       .  S
C1656      C1657   1.413       .  A
C1656      C1672   1.449       .  S
C1657      C1658   1.414       .  A
C1658      C1661   1.450       .  S
C1659      C1662   1.414       .  A
C1659      C1666   1.414       .  A
C1660      N1677   1.157       .  T
C1661      N1679   1.157       .  T
C1662      C1663   1.417       .  A
C1662      C1667   1.449       .  S
C1663      C1664   1.413       .  A
C1663      C1669   1.450       .  S
C1664      C1665   1.413       .  A
C1665      C1666   1.412       .  A
C1665      C1668   1.452       .  S
C1666      C1670   1.451       .  S
C1667      N1674   1.157       .  T
C1668      N1675   1.157       .  T
C1669      N1673   1.157       .  T
C1670      N1676   1.157       .  T
C1671      N1680   1.157       .  T
C1672      N1678   1.157       .  T
C1681      C1682   1.410       .  A
C1681      C1686   1.410       .  A
C1681      C1699   1.452       .  S
C1682      C1687   1.500       .  S
C1682      C1683   1.411       .  A
C1683      C1684   1.416       .  A
C1683      C1688   1.449       .  S
C1684      C1685   1.416       .  A
C1684      C1700   1.450       .  S
C1685      C1686   1.417       .  A
C1686      C1689   1.452       .  S
C1687      C1690   1.412       .  A
C1687      C1694   1.411       .  A
C1688      N1705   1.157       .  T
C1689      N1707   1.158       .  T
C1690      C1691   1.413       .  A
C1690      C1695   1.451       .  S
C1691      C1692   1.415       .  A
C1691      C1697   1.451       .  S
C1692      C1693   1.415       .  A
C1693      C1694   1.411       .  A
C1693      C1696   1.451       .  S
C1694      C1698   1.450       .  S
C1695      N1702   1.157       .  T
C1696      N1703   1.157       .  T
C1697      N1701   1.158       .  T
C1698      N1704   1.157       .  T
C1699      N1708   1.157       .  T
C1700      N1706   1.157       .  T
C1709      C1710   1.414       .  A
C1709      C1714   1.418       .  A
C1709      C1727   1.449       .  S
C1710      C1715   1.505       .  S
C1710      C1711   1.412       .  A
C1711      C1712   1.409       .  A
C1711      C1716   1.451       .  S
C1712      C1713   1.413       .  A
C1712      C1728   1.451       .  S
C1713      C1714   1.413       .  A
C1714      C1717   1.448       .  S
C1715      C1718   1.414       .  A
C1715      C1722   1.413       .  A
C1716      N1733   1.157       .  T
C1717      N1735   1.157       .  T
C1718      C1719   1.415       .  A
C1718      C1723   1.450       .  S
C1719      C1720   1.413       .  A
C1719      C1725   1.450       .  S
C1720      C1721   1.413       .  A
C1721      C1722   1.413       .  A
C1721      C1724   1.451       .  S
C1722      C1726   1.450       .  S
C1723      N1730   1.157       .  T
C1724      N1731   1.157       .  T
C1725      N1729   1.157       .  T
C1726      N1732   1.157       .  T
C1727      N1736   1.157       .  T
C1728      N1734   1.157       .  T
C1737      C1738   1.411       .  A
C1737      C1742   1.418       .  A
C1737      C1755   1.451       .  S
C1738      C1743   1.505       .  S
C1738      C1739   1.407       .  A
C1739      C1740   1.413       .  A
C1739      C1744   1.453       .  S
C1740      C1741   1.428       .  A
C1740      C1756   1.451       .  S
C1741      C1742   1.423       .  A
C1742      C1745   1.450       .  S
C1743      C1746   1.412       .  A
C1743      C1750   1.413       .  A
C1744      N1761   1.157       .  T
C1745      N1763   1.157       .  T
C1746      C1747   1.414       .  A
C1746      C1751   1.450       .  S
C1747      C1748   1.415       .  A
C1747      C1753   1.451       .  S
C1748      C1749   1.414       .  A
C1749      C1750   1.413       .  A
C1749      C1752   1.451       .  S
C1750      C1754   1.450       .  S
C1751      N1758   1.157       .  T
C1752      N1759   1.157       .  T
C1753      N1757   1.157       .  T
C1754      N1760   1.157       .  T
C1755      N1764   1.157       .  T
C1756      N1762   1.158       .  T
C1765      C1766   1.408       .  A
C1765      C1770   1.411       .  A
C1765      C1783   1.451       .  S
C1766      C1771   1.502       .  S
C1766      C1767   1.413       .  A
C1767      C1768   1.416       .  A
C1767      C1772   1.450       .  S
C1768      C1769   1.415       .  A
C1768      C1784   1.449       .  S
C1769      C1770   1.421       .  A
C1770      C1773   1.452       .  S
C1771      C1774   1.412       .  A
C1771      C1778   1.412       .  A
C1772      N1789   1.157       .  T
C1773      N1791   1.157       .  T
C1774      C1775   1.410       .  A
C1774      C1779   1.451       .  S
C1775      C1776   1.414       .  A
C1775      C1781   1.452       .  S
C1776      C1777   1.416       .  A
C1777      C1778   1.415       .  A
C1777      C1780   1.451       .  S
C1778      C1782   1.449       .  S
C1779      N1786   1.157       .  T
C1780      N1787   1.157       .  T
C1781      N1785   1.157       .  T
C1782      N1788   1.157       .  T
C1783      N1792   1.157       .  T
C1784      N1790   1.157       .  T
C1793      C1794   1.406       .  A
C1793      C1798   1.412       .  A
C1793      C1811   1.454       .  S
C1794      C1799   1.503       .  S
C1794      C1795   1.408       .  A
C1795      C1796   1.418       .  A
C1795      C1800   1.450       .  S
C1796      C1797   1.425       .  A
C1796      C1812   1.450       .  S
C1797      C1798   1.431       .  A
C1798      C1801   1.452       .  S
C1799      C1802   1.411       .  A
C1799      C1806   1.408       .  A
C1800      N1817   1.157       .  T
C1801      N1819   1.158       .  T
C1802      C1803   1.417       .  A
C1802      C1807   1.450       .  S
C1803      C1804   1.421       .  A
C1803      C1809   1.449       .  S
C1804      C1805   1.423       .  A
C1805      C1806   1.411       .  A
C1805      C1808   1.452       .  S
C1806      C1810   1.452       .  S
C1807      N1814   1.157       .  T
C1808      N1815   1.157       .  T
C1809      N1813   1.158       .  T
C1810      N1816   1.157       .  T
C1811      N1820   1.157       .  T
C1812      N1818   1.158       .  T
C1821      C1822   1.416       .  A
C1821      C1826   1.420       .  A
C1821      C1839   1.449       .  S
C1822      C1827   1.514       .  S
C1822      C1823   1.414       .  A
C1823      C1824   1.413       .  A
C1823      C1828   1.451       .  S
C1824      C1825   1.414       .  A
C1824      C1840   1.451       .  S
C1825      C1826   1.414       .  A
C1826      C1829   1.450       .  S
C1827      C1830   1.416       .  A
C1827      C1834   1.414       .  A
C1828      N1845   1.157       .  T
C1829      N1847   1.157       .  T
C1830      C1831   1.422       .  A
C1830      C1835   1.449       .  S
C1831      C1832   1.415       .  A
C1831      C1837   1.449       .  S
C1832      C1833   1.415       .  A
C1833      C1834   1.412       .  A
C1833      C1836   1.451       .  S
C1834      C1838   1.452       .  S
C1835      N1842   1.157       .  T
C1836      N1843   1.157       .  T
C1837      N1841   1.157       .  T
C1838      N1844   1.157       .  T
C1839      N1848   1.157       .  T
C1840      N1846   1.157       .  T
C1849      C1850   1.415       .  A
C1849      C1854   1.413       .  A
C1849      C1867   1.451       .  S
C1850      C1855   1.513       .  S
C1850      C1851   1.416       .  A
C1851      C1852   1.417       .  A
C1851      C1856   1.449       .  S
C1852      C1853   1.413       .  A
C1852      C1868   1.450       .  S
C1853      C1854   1.415       .  A
C1854      C1857   1.452       .  S
C1855      C1858   1.414       .  A
C1855      C1862   1.415       .  A
C1856      N1873   1.157       .  T
C1857      N1875   1.157       .  T
C1858      C1859   1.415       .  A
C1858      C1863   1.451       .  S
C1859      C1860   1.417       .  A
C1859      C1865   1.452       .  S
C1860      C1861   1.416       .  A
C1861      C1862   1.418       .  A
C1861      C1864   1.450       .  S
C1862      C1866   1.451       .  S
C1863      N1870   1.158       .  T
C1864      N1871   1.158       .  T
C1865      N1869   1.157       .  T
C1866      N1872   1.157       .  T
C1867      N1876   1.157       .  T
C1868      N1874   1.157       .  T
C1877      C1878   1.409       .  A
C1877      C1882   1.410       .  A
C1877      C1895   1.453       .  S
C1878      C1883   1.500       .  S
C1878      C1879   1.409       .  A
C1879      C1880   1.417       .  A
C1879      C1884   1.450       .  S
C1880      C1881   1.421       .  A
C1880      C1896   1.450       .  S
C1881      C1882   1.422       .  A
C1882      C1885   1.450       .  S
C1883      C1886   1.412       .  A
C1883      C1890   1.410       .  A
C1884      N1901   1.157       .  T
C1885      N1903   1.157       .  T
C1886      C1887   1.413       .  A
C1886      C1891   1.449       .  S
C1887      C1888   1.414       .  A
C1887      C1893   1.451       .  S
C1888      C1889   1.416       .  A
C1889      C1890   1.411       .  A
C1889      C1892   1.451       .  S
C1890      C1894   1.450       .  S
C1891      N1898   1.157       .  T
C1892      N1899   1.158       .  T
C1893      N1897   1.157       .  T
C1894      N1900   1.157       .  T
C1895      N1904   1.157       .  T
C1896      N1902   1.157       .  T
C1905      C1906   1.413       .  A
C1905      C1910   1.416       .  A
C1905      C1923   1.450       .  S
C1906      C1911   1.505       .  S
C1906      C1907   1.412       .  A
C1907      C1908   1.413       .  A
C1907      C1912   1.451       .  S
C1908      C1909   1.415       .  A
C1908      C1924   1.451       .  S
C1909      C1910   1.413       .  A
C1910      C1913   1.447       .  S
C1911      C1914   1.412       .  A
C1911      C1918   1.412       .  A
C1912      N1929   1.157       .  T
C1913      N1931   1.156       .  T
C1914      C1915   1.413       .  A
C1914      C1919   1.451       .  S
C1915      C1916   1.415       .  A
C1915      C1921   1.451       .  S
C1916      C1917   1.414       .  A
C1917      C1918   1.416       .  A
C1917      C1920   1.450       .  S
C1918      C1922   1.449       .  S
C1919      N1926   1.157       .  T
C1920      N1927   1.157       .  T
C1921      N1925   1.157       .  T
C1922      N1928   1.157       .  T
C1923      N1932   1.157       .  T
C1924      N1930   1.157       .  T
C1933      C1934   1.415       .  A
C1933      C1938   1.417       .  A
C1933      C1951   1.449       .  S
C1934      C1939   1.506       .  S
C1934      C1935   1.411       .  A
C1935      C1936   1.411       .  A
C1935      C1940   1.451       .  S
C1936      C1937   1.416       .  A
C1936      C1952   1.452       .  S
C1937      C1938   1.413       .  A
C1938      C1941   1.450       .  S
C1939      C1942   1.411       .  A
C1939      C1946   1.408       .  A
C1940      N1957   1.157       .  T
C1941      N1959   1.158       .  T
C1942      C1943   1.419       .  A
C1942      C1947   1.450       .  S
C1943      C1944   1.421       .  A
C1943      C1949   1.448       .  S
C1944      C1945   1.427       .  A
C1945      C1946   1.413       .  A
C1945      C1948   1.452       .  S
C1946      C1950   1.453       .  S
C1947      N1954   1.157       .  T
C1948      N1955   1.158       .  T
C1949      N1953   1.156       .  T
C1950      N1956   1.157       .  T
C1951      N1960   1.157       .  T
C1952      N1958   1.157       .  T
C1961      C1962   1.411       .  A
C1961      C1966   1.412       .  A
C1961      C1979   1.452       .  S
C1962      C1967   1.506       .  S
C1962      C1963   1.412       .  A
C1963      C1964   1.418       .  A
C1963      C1968   1.449       .  S
C1964      C1965   1.417       .  A
C1964      C1980   1.449       .  S
C1965      C1966   1.419       .  A
C1966      C1969   1.452       .  S
C1967      C1970   1.410       .  A
C1967      C1974   1.412       .  A
C1968      N1985   1.157       .  T
C1969      N1987   1.157       .  T
C1970      C1971   1.413       .  A
C1970      C1975   1.451       .  S
C1971      C1972   1.419       .  A
C1971      C1977   1.451       .  S
C1972      C1973   1.417       .  A
C1973      C1974   1.416       .  A
C1973      C1976   1.451       .  S
C1974      C1978   1.449       .  S
C1975      N1982   1.157       .  T
C1976      N1983   1.157       .  T
C1977      N1981   1.158       .  T
C1978      N1984   1.157       .  T
C1979      N1988   1.158       .  T
C1980      N1986   1.158       .  T
C1989      C1990   1.414       .  A
C1989      C1994   1.415       .  A
C1989      C2007   1.450       .  S
C1990      C1995   1.502       .  S
C1990      C1991   1.411       .  A
C1991      C1992   1.410       .  A
C1991      C1996   1.450       .  S
C1992      C1993   1.413       .  A
C1992      C2008   1.451       .  S
C1993      C1994   1.414       .  A
C1994      C1997   1.451       .  S
C1995      C1998   1.413       .  A
C1995      C2002   1.413       .  A
C1996      N2013   1.157       .  T
C1997      N2015   1.158       .  T
C1998      C1999   1.411       .  A
C1998      C2003   1.451       .  S
C1999      C2000   1.413       .  A
C1999      C2005   1.451       .  S
C2000      C2001   1.413       .  A
C2001      C2002   1.415       .  A
C2001      C2004   1.450       .  S
C2002      C2006   1.449       .  S
C2003      N2010   1.157       .  T
C2004      N2011   1.157       .  T
C2005      N2009   1.158       .  T
C2006      N2012   1.157       .  T
C2007      N2016   1.157       .  T
C2008      N2014   1.157       .  T
C2017      C2018   1.412       .  A
C2017      C2022   1.413       .  A
C2017      C2035   1.450       .  S
C2018      C2023   1.499       .  S
C2018      C2019   1.411       .  A
C2019      C2020   1.411       .  A
C2019      C2024   1.451       .  S
C2020      C2021   1.413       .  A
C2020      C2036   1.451       .  S
C2021      C2022   1.413       .  A
C2022      C2025   1.451       .  S
C2023      C2026   1.411       .  A
C2023      C2030   1.409       .  A
C2024      N2041   1.157       .  T
C2025      N2043   1.157       .  T
C2026      C2027   1.416       .  A
C2026      C2031   1.449       .  S
C2027      C2028   1.416       .  A
C2027      C2033   1.450       .  S
C2028      C2029   1.419       .  A
C2029      C2030   1.409       .  A
C2029      C2032   1.453       .  S
C2030      C2034   1.452       .  S
C2031      N2038   1.157       .  T
C2032      N2039   1.158       .  T
C2033      N2037   1.157       .  T
C2034      N2040   1.157       .  T
C2035      N2044   1.157       .  T
C2036      N2042   1.157       .  T
C2045      C2046   1.415       .  A
C2045      C2050   1.416       .  A
C2045      C2063   1.450       .  S
C2046      C2051   1.503       .  S
C2046      C2047   1.409       .  A
C2047      C2048   1.411       .  A
C2047      C2052   1.451       .  S
C2048      C2049   1.417       .  A
C2048      C2064   1.450       .  S
C2049      C2050   1.411       .  A
C2050      C2053   1.450   1_565  S
C2051      C2054   1.412       .  A
C2051      C2058   1.412       .  A
C2052      N2069   1.157       .  T
C2053      N2071   1.157       .  T
C2054      C2055   1.415       .  A
C2054      C2059   1.450       .  S
C2055      C2056   1.416       .  A
C2055      C2061   1.450       .  S
C2056      C2057   1.414       .  A
C2057      C2058   1.411       .  A
C2057      C2060   1.451       .  S
C2058      C2062   1.451       .  S
C2059      N2066   1.157       .  T
C2060      N2067   1.157       .  T
C2061      N2065   1.157       .  T
C2062      N2068   1.157   1_565  T
C2063      N2072   1.157       .  T
C2064      N2070   1.157       .  T
C2073      C2074   1.411       .  A
C2073      C2078   1.410       .  A
C2073      C2091   1.451       .  S
C2074      C2079   1.497       .  S
C2074      C2075   1.412       .  A
C2075      C2076   1.413       .  A
C2075      C2080   1.450       .  S
C2076      C2077   1.413       .  A
C2076      C2092   1.451       .  S
C2077      C2078   1.414       .  A
C2078      C2081   1.451       .  S
C2079      C2082   1.411       .  A
C2079      C2086   1.408       .  A
C2080      N2097   1.157       .  T
C2081      N2099   1.157       .  T
C2082      C2083   1.416       .  A
C2082      C2087   1.449       .  S
C2083      C2084   1.417       .  A
C2083      C2089   1.450   1_565  S
C2084      C2085   1.421       .  A
C2085      C2086   1.407       .  A
C2085      C2088   1.453       .  S
C2086      C2090   1.453       .  S
C2087      N2094   1.157       .  T
C2088      N2095   1.157       .  T
C2089      N2093   1.157       .  T
C2090      N2096   1.157       .  T
C2091      N2100   1.157       .  T
C2092      N2098   1.157       .  T
C2101      C2102   1.414       .  A
C2101      C2106   1.415       .  A
C2101      C2119   1.450       .  S
C2102      C2107   1.505       .  S
C2102      C2103   1.411       .  A
C2103      C2104   1.412       .  A
C2103      C2108   1.451       .  S
C2104      C2105   1.416       .  A
C2104      C2120   1.452       .  S
C2105      C2106   1.413       .  A
C2106      C2109   1.450       .  S
C2107      C2110   1.407       .  A
C2107      C2114   1.411       .  A
C2108      N2125   1.157       .  T
C2109      N2127   1.157       .  T
C2110      C2111   1.412       .  A
C2110      C2115   1.453       .  S
C2111      C2112   1.428       .  A
C2111      C2117   1.452       .  S
C2112      C2113   1.422       .  A
C2113      C2114   1.418       .  A
C2113      C2116   1.450       .  S
C2114      C2118   1.451       .  S
C2115      N2122   1.157       .  T
C2116      N2123   1.158       .  T
C2117      N2121   1.157       .  T
C2118      N2124   1.157       .  T
C2119      N2128   1.157       .  T
C2120      N2126   1.157       .  T
C2129      C2130   1.409       .  A
C2129      C2134   1.408       .  A
C2129      C2147   1.451       .  S
C2130      C2135   1.495       .  S
C2130      C2131   1.411       .  A
C2131      C2132   1.413       .  A
C2131      C2136   1.450       .  S
C2132      C2133   1.413       .  A
C2132      C2148   1.449       .  S
C2133      C2134   1.416       .  A
C2134      C2137   1.452       .  S
C2135      C2138   1.409       .  A
C2135      C2142   1.410       .  A
C2136      N2153   1.157       .  T
C2137      N2155   1.157       .  T
C2138      C2139   1.406       .  A
C2138      C2143   1.453       .  S
C2139      C2140   1.420       .  A
C2139      C2145   1.453       .  S
C2140      C2141   1.417       .  A
C2141      C2142   1.414       .  A
C2141      C2144   1.450       .  S
C2142      C2146   1.449       .  S
C2143      N2150   1.157       .  T
C2144      N2151   1.157       .  T
C2145      N2149   1.158       .  T
C2146      N2152   1.157       .  T
C2147      N2156   1.158       .  T
C2148      N2154   1.158       .  T
C2157      C2158   1.410       .  A
C2157      C2162   1.418       .  A
C2157      C2175   1.450       .  S
C2158      C2163   1.506       .  S
C2158      C2159   1.409       .  A
C2159      C2160   1.412       .  A
C2159      C2164   1.453       .  S
C2160      C2161   1.427       .  A
C2160      C2176   1.452       .  S
C2161      C2162   1.423       .  A
C2162      C2165   1.450       .  S
C2163      C2166   1.407       .  A
C2163      C2170   1.410       .  A
C2164      N2181   1.157       .  T
C2165      N2183   1.157       .  T
C2166      C2167   1.413       .  A
C2166      C2171   1.454       .  S
C2167      C2168   1.431       .  A
C2167      C2173   1.452       .  S
C2168      C2169   1.423       .  A
C2169      C2170   1.418       .  A
C2169      C2172   1.450       .  S
C2170      C2174   1.450       .  S
C2171      N2178   1.157       .  T
C2172      N2179   1.157       .  T
C2173      N2177   1.158       .  T
C2174      N2180   1.157       .  T
C2175      N2184   1.157       .  T
C2176      N2182   1.158       .  T
C2185      C2186   1.410       .  A
C2185      C2190   1.412       .  A
C2185      C2203   1.451   1_556  S
C2186      C2191   1.498   1_556  S
C2186      C2187   1.412       .  A
C2187      C2188   1.411       .  A
C2187      C2192   1.450   1_655  S
C2188      C2189   1.412       .  A
C2188      C2204   1.450       .  S
C2189      C2190   1.416       .  A
C2190      C2193   1.451       .  S
C2191      C2194   1.410       .  A
C2191      C2198   1.406   1_655  A
C2192      N2209   1.157       .  T
C2193      N2211   1.157       .  T
C2194      C2195   1.415   1_655  A
C2194      C2199   1.451       .  S
C2195      C2196   1.420       .  A
C2195      C2201   1.451       .  S
C2196      C2197   1.424       .  A
C2197      C2198   1.410       .  A
C2197      C2200   1.450       .  S
C2198      C2202   1.452   1_554  S
C2199      N2206   1.157       .  T
C2200      N2207   1.157       .  T
C2201      N2205   1.158       .  T
C2202      N2208   1.157       .  T
C2203      N2212   1.157       .  T
C2204      N2210   1.157       .  T
C2213      C2214   1.413       .  A
C2213      C2218   1.412       .  A
C2213      C2231   1.451       .  S
C2214      C2219   1.509       .  S
C2214      C2215   1.415       .  A
C2215      C2216   1.416       .  A
C2215      C2220   1.449       .  S
C2216      C2217   1.414       .  A
C2216      C2232   1.448       .  S
C2217      C2218   1.417       .  A
C2218      C2221   1.452       .  S
C2219      C2222   1.414   1_556  A
C2219      C2226   1.416       .  A
C2220      N2237   1.157       .  T
C2221      N2239   1.157       .  T
C2222      C2223   1.409       .  A
C2222      C2227   1.453       .  S
C2223      C2224   1.416       .  A
C2223      C2229   1.453       .  S
C2224      C2225   1.414   1_554  A
C2225      C2226   1.419       .  A
C2225      C2228   1.450       .  S
C2226      C2230   1.449       .  S
C2227      N2234   1.157       .  T
C2228      N2235   1.157       .  T
C2229      N2233   1.157       .  T
C2230      N2236   1.157       .  T
C2231      N2240   1.157       .  T
C2232      N2238   1.158       .  T
C2241      C2242   1.409       .  A
C2241      C2246   1.418       .  A
C2241      C2259   1.452       .  S
C2242      C2247   1.517       .  S
C2242      C2243   1.413       .  A
C2243      C2244   1.422       .  A
C2243      C2248   1.450       .  S
C2244      C2245   1.425       .  A
C2244      C2260   1.450       .  S
C2245      C2246   1.429       .  A
C2246      C2249   1.451       .  S
C2247      C2250   1.416       .  A
C2247      C2254   1.413       .  A
C2248      N2265   1.158       .  T
C2249      N2267   1.158       .  T
C2250      C2251   1.419       .  A
C2250      C2255   1.449       .  S
C2251      C2252   1.415       .  A
C2251      C2257   1.450       .  S
C2252      C2253   1.419       .  A
C2253      C2254   1.417       .  A
C2253      C2256   1.451       .  S
C2254      C2258   1.451       .  S
C2255      N2262   1.157       .  T
C2256      N2263   1.158       .  T
C2257      N2261   1.157       .  T
C2258      N2264   1.157       .  T
C2259      N2268   1.157       .  T
C2260      N2266   1.157       .  T
C2269      C2270   1.410       .  A
C2269      C2274   1.410       .  A
C2269      C2287   1.451       .  S
C2270      C2275   1.504       .  S
C2270      C2271   1.414       .  A
C2271      C2272   1.417       .  A
C2271      C2276   1.449       .  S
C2272      C2273   1.412       .  A
C2272      C2288   1.450       .  S
C2273      C2274   1.416       .  A
C2274      C2277   1.452       .  S
C2275      C2278   1.411   1_655  A
C2275      C2282   1.412       .  A
C2276      N2293   1.157       .  T
C2277      N2295   1.157       .  T
C2278      C2279   1.412       .  A
C2278      C2283   1.451       .  S
C2279      C2280   1.416       .  A
C2279      C2285   1.450       .  S
C2280      C2281   1.417   1_455  A
C2281      C2282   1.416       .  A
C2281      C2284   1.451       .  S
C2282      C2286   1.450       .  S
C2283      N2290   1.157       .  T
C2284      N2291   1.158       .  T
C2285      N2289   1.157       .  T
C2286      N2292   1.157       .  T
C2287      N2296   1.157       .  T
C2288      N2294   1.157       .  T
C2297      C2298   1.410       .  A
C2297      C2302   1.414   1_654  A
C2297      C2315   1.451       .  S
C2298      C2303   1.508       .  S
C2298      C2299   1.414       .  A
C2299      C2300   1.418       .  A
C2299      C2304   1.449       .  S
C2300      C2301   1.415   1_654  A
C2300      C2316   1.450   1_554  S
C2301      C2302   1.414       .  A
C2302      C2305   1.445       .  S
C2303      C2306   1.414       .  A
C2303      C2310   1.413       .  A
C2304      N2321   1.157       .  T
C2305      N2323   1.156       .  T
C2306      C2307   1.418       .  A
C2306      C2311   1.449       .  S
C2307      C2308   1.415       .  A
C2307      C2313   1.450       .  S
C2308      C2309   1.414       .  A
C2309      C2310   1.411       .  A
C2309      C2312   1.452       .  S
C2310      C2314   1.451   1_554  S
C2311      N2318   1.157       .  T
C2312      N2319   1.157   1_554  T
C2313      N2317   1.157       .  T
C2314      N2320   1.157       .  T
C2315      N2324   1.157       .  T
C2316      N2322   1.157   1_655  T
C2325      C2326   1.411       .  A
C2325      C2330   1.415       .  A
C2325      C2343   1.450       .  S
C2326      C2331   1.501       .  S
C2326      C2327   1.408       .  A
C2327      C2328   1.411       .  A
C2327      C2332   1.451       .  S
C2328      C2329   1.420       .  A
C2328      C2344   1.452       .  S
C2329      C2330   1.416       .  A
C2330      C2333   1.449       .  S
C2331      C2334   1.407       .  A
C2331      C2338   1.407       .  A
C2332      N2349   1.157       .  T
C2333      N2351   1.157       .  T
C2334      C2335   1.410       .  A
C2334      C2339   1.453       .  S
C2335      C2336   1.427       .  A
C2335      C2341   1.452       .  S
C2336      C2337   1.427       .  A
C2337      C2338   1.417       .  A
C2337      C2340   1.450       .  S
C2338      C2342   1.450       .  S
C2339      N2346   1.157       .  T
C2340      N2347   1.158       .  T
C2341      N2345   1.157       .  T
C2342      N2348   1.157       .  T
C2343      N2352   1.157       .  T
C2344      N2350   1.158       .  T
C2353      C2354   1.408       .  A
C2353      C2358   1.412       .  A
C2353      C2371   1.453       .  S
C2354      C2359   1.501       .  S
C2354      C2355   1.408       .  A
C2355      C2356   1.416       .  A
C2355      C2360   1.450       .  S
C2356      C2357   1.423       .  A
C2356      C2372   1.450       .  S
C2357      C2358   1.426       .  A
C2358      C2361   1.452       .  S
C2359      C2362   1.410       .  A
C2359      C2366   1.411       .  A
C2360      N2377   1.158       .  T
C2361      N2379   1.158       .  T
C2362      C2363   1.411       .  A
C2362      C2367   1.451       .  S
C2363      C2364   1.417       .  A
C2363      C2369   1.452       .  S
C2364      C2365   1.416       .  A
C2365      C2366   1.415       .  A
C2365      C2368   1.448       .  S
C2366      C2370   1.450       .  S
C2367      N2374   1.157       .  T
C2368      N2375   1.157       .  T
C2369      N2373   1.157       .  T
C2370      N2376   1.157       .  T
C2371      N2380   1.157       .  T
C2372      N2378   1.157       .  T
C2381      C2382   1.408   1_545  A
C2381      C2386   1.410       .  A
C2381      C2399   1.451       .  S
C2382      C2387   1.500       .  S
C2382      C2383   1.411       .  A
C2383      C2384   1.416       .  A
C2383      C2388   1.450       .  S
C2384      C2385   1.419   1_565  A
C2384      C2400   1.450       .  S
C2385      C2386   1.419       .  A
C2386      C2389   1.450       .  S
C2387      C2390   1.410       .  A
C2387      C2394   1.413       .  A
C2388      N2405   1.157       .  T
C2389      N2407   1.157       .  T
C2390      C2391   1.412       .  A
C2390      C2395   1.450       .  S
C2391      C2392   1.416       .  A
C2391      C2397   1.451       .  S
C2392      C2393   1.412       .  A
C2393      C2394   1.413       .  A
C2393      C2396   1.450       .  S
C2394      C2398   1.450       .  S
C2395      N2402   1.157       .  T
C2396      N2403   1.157       .  T
C2397      N2401   1.158       .  T
C2398      N2404   1.157       .  T
C2399      N2408   1.157       .  T
C2400      N2406   1.158       .  T
C2409      C2410   1.411       .  A
C2409      C2414   1.410       .  A
C2409      C2427   1.451       .  S
C2410      C2415   1.498       .  S
C2410      C2411   1.412       .  A
C2411      C2412   1.413       .  A
C2411      C2416   1.450       .  S
C2412      C2413   1.412       .  A
C2412      C2428   1.450       .  S
C2413      C2414   1.412       .  A
C2414      C2417   1.451       .  S
C2415      C2418   1.410       .  A
C2415      C2422   1.409       .  A
C2416      N2433   1.157       .  T
C2417      N2435   1.157       .  T
C2418      C2419   1.415       .  A
C2418      C2423   1.449       .  S
C2419      C2420   1.417       .  A
C2419      C2425   1.450       .  S
C2420      C2421   1.421       .  A
C2421      C2422   1.408       .  A
C2421      C2424   1.453       .  S
C2422      C2426   1.453       .  S
C2423      N2430   1.158       .  T
C2424      N2431   1.158       .  T
C2425      N2429   1.157       .  T
C2426      N2432   1.157       .  T
C2427      N2436   1.157       .  T
C2428      N2434   1.158       .  T
C2437      C2438   1.410       .  A
C2437      C2442   1.409       .  A
C2437      C2455   1.451       .  S
C2438      C2443   1.496   1_545  S
C2438      C2439   1.413   1_545  A
C2439      C2440   1.413   1_565  A
C2439      C2444   1.450       .  S
C2440      C2441   1.412       .  A
C2440      C2456   1.450       .  S
C2441      C2442   1.411       .  A
C2442      C2445   1.449       .  S
C2443      C2446   1.409       .  A
C2443      C2450   1.413       .  A
C2444      N2461   1.157       .  T
C2445      N2463   1.157       .  T
C2446      C2447   1.410       .  A
C2446      C2451   1.451   1_565  S
C2447      C2448   1.415       .  A
C2447      C2453   1.451       .  S
C2448      C2449   1.410       .  A
C2449      C2450   1.412       .  A
C2449      C2452   1.450       .  S
C2450      C2454   1.450       .  S
C2451      N2458   1.157       .  T
C2452      N2459   1.157       .  T
C2453      N2457   1.157       .  T
C2454      N2460   1.157       .  T
C2455      N2464   1.157       .  T
C2456      N2462   1.157   1_545  T
C2465      C2466   1.410   1_565  A
C2465      C2470   1.414       .  A
C2465      C2483   1.449       .  S
C2466      C2471   1.495       .  S
C2466      C2467   1.410       .  A
C2467      C2468   1.407   1_545  A
C2467      C2472   1.453       .  S
C2468      C2469   1.418       .  A
C2468      C2484   1.453   1_565  S
C2469      C2470   1.415       .  A
C2470      C2473   1.450       .  S
C2471      C2474   1.411       .  A
C2471      C2478   1.411       .  A
C2472      N2489   1.157       .  T
C2473      N2491   1.158       .  T
C2474      C2475   1.411       .  A
C2474      C2479   1.450       .  S
C2475      C2476   1.412       .  A
C2475      C2481   1.451       .  S
C2476      C2477   1.411       .  A
C2477      C2478   1.410       .  A
C2477      C2480   1.450       .  S
C2478      C2482   1.450       .  S
C2479      N2486   1.157       .  T
C2480      N2487   1.157       .  T
C2481      N2485   1.157       .  T
C2482      N2488   1.157       .  T
C2483      N2492   1.157       .  T
C2484      N2490   1.157       .  T
C2493      C2494   1.413       .  A
C2493      C2498   1.416       .  A
C2493      C2511   1.450       .  S
C2494      C2499   1.503       .  S
C2494      C2495   1.410       .  A
C2495      C2496   1.411       .  A
C2495      C2500   1.451       .  S
C2496      C2497   1.418       .  A
C2496      C2512   1.452       .  S
C2497      C2498   1.415       .  A
C2498      C2501   1.450       .  S
C2499      C2502   1.412       .  A
C2499      C2506   1.411       .  A
C2500      N2517   1.157       .  T
C2501      N2519   1.157       .  T
C2502      C2503   1.414       .  A
C2502      C2507   1.450       .  S
C2503      C2504   1.414       .  A
C2503      C2509   1.450       .  S
C2504      C2505   1.416       .  A
C2505      C2506   1.413       .  A
C2505      C2508   1.451       .  S
C2506      C2510   1.451       .  S
C2507      N2514   1.157       .  T
C2508      N2515   1.157       .  T
C2509      N2513   1.157       .  T
C2510      N2516   1.157       .  T
C2511      N2520   1.157       .  T
C2512      N2518   1.157       .  T
