geometry optimzed in LAMMPS
_audit_creation_date              2020-12-01 
_audit_creation_method            'lammps2cif' 
_symmetry_space_group_name_H-M    'P1' 
_symmetry_Int_Tables_number       1 
_symmetry_cell_setting            triclinic 
loop_ 
_symmetry_equiv_pos_as_xyz 
  x,y,z 
_cell_length_a                    39.63744094 
_cell_length_b                    39.911327952429964 
_cell_length_c                    54.00325889096705 
_cell_angle_alpha                 90.03747287569823 
_cell_angle_beta                  90.03941462732026 
_cell_angle_gamma                 90.17197899442509 
loop_ 
_atom_site_label 
_atom_site_type_symbol 
_atom_site_fract_x 
_atom_site_fract_y 
_atom_site_fract_z 
_atom_site_charge 
O1          O  0.91046961  0.92264304  0.65248654    -0.72500
O2          O  0.86669379  0.83305836  0.64435772    -0.73500
O3          O  0.90844821  0.87301558  0.61423226    -0.62100
O4          O  0.86795281  0.88252933  0.68230649    -0.70500
O5          O  0.82301829  0.90701543  0.66579956    -0.70100
O6          O  0.86345055  0.89786682  0.59812924    -0.61400
O7          O  0.82107095  0.85710914  0.62855150    -0.73900
O8          O  0.86636612  0.94807802  0.63559442    -0.72600
Cu9        Cu  0.88999110  0.87709629  0.64890002     1.04600
Cu10       Cu  0.84191785  0.90348792  0.63143432     1.04300
C11         C  0.89567632  0.94938454  0.64550285     0.93700
C12         C  0.83705201  0.83080937  0.63529384     0.92800
C13         C  0.89190127  0.88340772  0.59543183     0.84900
C14         C  0.83875343  0.89567191  0.68463940     0.91200
O15         O  0.13776839  0.09934348  0.61510575    -0.72500
O16         O  0.12802099  0.14018198  0.68307784    -0.73500
O17         O  0.08762784  0.09832626  0.65310185    -0.62100
O18         O  0.17839886  0.14059992  0.64538987    -0.70500
O19         O  0.15497164  0.18614055  0.62931213    -0.70100
O20         O  0.06301958  0.14243542  0.63583380    -0.61400
O21         O  0.10434642  0.18509412  0.66621285    -0.73900
O22         O  0.11385885  0.14452394  0.59885989    -0.72600
Cu23       Cu  0.13371794  0.11802692  0.64974965     1.04600
Cu24       Cu  0.10813202  0.16610850  0.63198043     1.04300
C25         C  0.12771694  0.11592892  0.59624761     0.93700
C26         C  0.11490628  0.16927199  0.68521052     0.92800
C27         C  0.06111041  0.11337453  0.64572973     0.84900
C28         C  0.18114116  0.16992340  0.63619658     0.91200
O29         O  0.13878406  0.34329617  0.91272599    -0.72500
O30         O  0.13104202  0.30350688  0.84427844    -0.73500
O31         O  0.08996571  0.34527145  0.87382283    -0.62100
O32         O  0.17986283  0.30275113  0.88289429    -0.70500
O33         O  0.15553653  0.25713091  0.89829062    -0.70100
O34         O  0.06375709  0.30127311  0.89007550    -0.61400
O35         O  0.10584013  0.25873803  0.86027782    -0.73900
O36         O  0.11336427  0.29821870  0.92808866    -0.72600
Cu37       Cu  0.13565849  0.32527532  0.87787501     1.04600
Cu38       Cu  0.10866983  0.27723280  0.89472241     1.04300
C39         C  0.12779160  0.32651866  0.93121595     0.93700
C40         C  0.11746302  0.27461248  0.84161934     0.92800
C41         C  0.06280599  0.33054484  0.88041888     0.84900
C42         C  0.18210597  0.27344819  0.89209746     0.91200
O43         O  0.82427584  0.53596098  0.86209222    -0.72500
O44         O  0.86431964  0.54512472  0.92970509    -0.73500
O45         O  0.82381339  0.58659226  0.89901902    -0.62100
O46         O  0.86643111  0.49435746  0.89254715    -0.70500
O47         O  0.91108583  0.51930735  0.87588596    -0.70100
O48         O  0.87009175  0.60936980  0.88301677    -0.61400
O49         O  0.91012739  0.56898120  0.91384935    -0.73900
O50         O  0.86986446  0.55924567  0.84543086    -0.72600
Cu51       Cu  0.84306844  0.53960622  0.89640666     1.04600
Cu52       Cu  0.89187491  0.56492642  0.87898017     1.04300
C53         C  0.84044301  0.54635128  0.84315401     0.93700
C54         C  0.89310195  0.55897125  0.93257600     0.92800
C55         C  0.84072136  0.61242854  0.89228951     0.84900
C56         C  0.89584611  0.49276832  0.88282149     0.91200
O57         O  0.42433947  0.25236156  0.62683533    -0.72500
O58         O  0.51571795  0.29825917  0.63511754    -0.73500
O59         O  0.47469753  0.25300605  0.66423439    -0.62100
O60         O  0.46510172  0.29611245  0.59761474    -0.70500
O61         O  0.43905909  0.33959731  0.61462187    -0.70100
O62         O  0.45000938  0.29689971  0.68175356    -0.61400
O63         O  0.48897486  0.34101359  0.65246279    -0.73900
O64         O  0.39983723  0.29660201  0.64400995    -0.72600
Cu65       Cu  0.47096456  0.27335705  0.63034866     1.04600
Cu66       Cu  0.44372590  0.32000342  0.64883398     1.04300
C67         C  0.39775639  0.26775054  0.63399500     0.93700
C68         C  0.51624869  0.32737153  0.64513389     0.92800
C69         C  0.46359425  0.26797363  0.68346115     0.84900
C70         C  0.44998055  0.32415198  0.59550665     0.91200
O71         O  0.66726598  0.52324935  0.65184376    -0.72500
O72         O  0.71381622  0.61108996  0.64492372    -0.73500
O73         O  0.67167725  0.57264149  0.61401218    -0.62100
O74         O  0.71082109  0.56129981  0.68249000    -0.70500
O75         O  0.75515878  0.53569494  0.66607461    -0.70100
O76         O  0.71618016  0.54642314  0.59838281    -0.61400
O77         O  0.75898425  0.58624243  0.62914916    -0.73900
O78         O  0.71055882  0.49593851  0.63553915    -0.72600
Cu79       Cu  0.68937239  0.56783287  0.64887399     1.04600
Cu80       Cu  0.73681480  0.54006291  0.63172549     1.04300
C81         C  0.68084419  0.49588414  0.64490510     0.93700
C82         C  0.74346870  0.61286378  0.63593008     0.92800
C83         C  0.68821531  0.56162790  0.59540270     0.84900
C84         C  0.73955782  0.54716847  0.68490124     0.91200
O85         O  0.71525488  0.82851530  0.88496312    -0.72500
O86         O  0.66632886  0.91439350  0.87658277    -0.73500
O87         O  0.70981167  0.87634013  0.84610895    -0.62100
O88         O  0.67308168  0.86686556  0.91550846    -0.70500
O89         O  0.71745401  0.89466883  0.93009021    -0.70100
O90         O  0.75414262  0.90344376  0.86146393    -0.61400
O91         O  0.70961006  0.94321670  0.89176494    -0.73900
O92         O  0.76036791  0.85500912  0.89964175    -0.72600
Cu93       Cu  0.68960721  0.87067993  0.88026224     1.04600
Cu94       Cu  0.73697489  0.90018993  0.89622316     1.04300
C95         C  0.74507027  0.82781911  0.89378925     0.93700
C96         C  0.67964109  0.94224452  0.88284553     0.92800
C97         C  0.73826946  0.89094143  0.84306126     0.84900
C98         C  0.68986175  0.87888852  0.93371702     0.91200
O99         O  0.42464359  0.18787222  0.89825378    -0.72500
O100        O  0.51244889  0.13584252  0.89019614    -0.73500
O101        O  0.47438058  0.18228259  0.86048504    -0.62100
O102        O  0.46311236  0.14294407  0.92824076    -0.70500
O103        O  0.43468790  0.09983547  0.91263411    -0.70100
O104        O  0.44610963  0.13959520  0.84409421    -0.61400
O105        O  0.48290307  0.09409507  0.87372964    -0.73900
O106        O  0.39723160  0.14405820  0.88271601    -0.72600
Cu107      Cu  0.46972870  0.16376386  0.89483855     1.04600
Cu108      Cu  0.43931287  0.11796283  0.87771246     1.04300
C109        C  0.39702094  0.17344383  0.89195662     0.93700
C110        C  0.51107708  0.10649538  0.88059139     0.92800
C111        C  0.46191447  0.16740668  0.84163925     0.84900
C112        C  0.44696326  0.11554411  0.93126955     0.91200
O113        O  0.31765520  0.35736482  0.39973306    -0.72500
O114        O  0.36557361  0.44710786  0.39318579    -0.73500
O115        O  0.32096791  0.40790367  0.36283043    -0.62100
O116        O  0.36114157  0.39661513  0.43022844    -0.70500
O117        O  0.40556344  0.37104596  0.41389842    -0.70100
O118        O  0.36528555  0.38278789  0.34594238    -0.61400
O119        O  0.40895180  0.42067568  0.37612351    -0.73900
O120        O  0.36262197  0.33269764  0.38346756    -0.72600
Cu121      Cu  0.33976792  0.40323729  0.39706713     1.04600
Cu122      Cu  0.38713372  0.37598655  0.37928079     1.04300
C123        C  0.33313581  0.33085623  0.39279930     0.93700
C124        C  0.39496745  0.44767184  0.38338163     0.92800
C125        C  0.33655661  0.39697037  0.34381540     0.84900
C126        C  0.38933011  0.38166312  0.43278318     0.91200
O127        O  0.67851875  0.64128644  0.38362991    -0.72500
O128        O  0.58905617  0.59709294  0.37591597    -0.73500
O129        O  0.62896475  0.63831836  0.34533619    -0.62100
O130        O  0.63795836  0.60109292  0.41440143    -0.70500
O131        O  0.61227385  0.64613534  0.42938412    -0.70100
O132        O  0.60366599  0.68312400  0.36104018    -0.61400
O133        O  0.56246609  0.64108870  0.39168105    -0.73900
O134        O  0.65372598  0.68686908  0.39850552    -0.72600
Cu135      Cu  0.63442015  0.61786388  0.37930096     1.04600
Cu136      Cu  0.60709488  0.66591354  0.39567925     1.04300
C137        C  0.68043314  0.67092238  0.39232908     0.93700
C138        C  0.56181917  0.61159162  0.38237682     0.92800
C139        C  0.61497185  0.66689137  0.34247605     0.84900
C140        C  0.62684512  0.61805972  0.43274488     0.91200
O141        O  0.89845484  0.64403788  0.14622733    -0.72500
O142        O  0.98496241  0.59569021  0.15323413    -0.73500
O143        O  0.94861906  0.63997010  0.18380372    -0.62100
O144        O  0.93540635  0.60062735  0.11558540    -0.70500
O145        O  0.96306232  0.64387544  0.09947771    -0.70100
O146        O  0.97564412  0.68326244  0.16718219    -0.61400
O147        O  0.01355632  0.63792072  0.13655408    -0.73900
O148        O  0.92493243  0.68810978  0.13022875    -0.72600
Cu149      Cu  0.94098373  0.61863739  0.15030076     1.04600
Cu150      Cu  0.97032090  0.66488194  0.13279575     1.04300
C151        C  0.89773049  0.67340259  0.13704134     0.93700
C152        C  0.01271564  0.60849169  0.14595907     0.92800
C153        C  0.96403505  0.66800038  0.18612784     0.84900
C154        C  0.94717865  0.61623892  0.09679124     0.91200
O155        O  0.20931088  0.37520473  0.18233412    -0.72500
O156        O  0.17103457  0.36660586  0.11317575    -0.73500
O157        O  0.21400579  0.32777336  0.14300403    -0.62100
O158        O  0.16498609  0.41317033  0.15259674    -0.70500
O159        O  0.20758294  0.44244531  0.13690625    -0.70100
O160        O  0.25903325  0.35466370  0.12866898    -0.61400
O161        O  0.21544321  0.39427883  0.09859021    -0.73900
O162        O  0.25285731  0.40332422  0.16683859    -0.72600
Cu163      Cu  0.18835903  0.36978238  0.14832607     1.04600
Cu164      Cu  0.23531614  0.39975468  0.13226236     1.04300
C165        C  0.23741928  0.39054616  0.18528842     0.93700
C166        C  0.18761008  0.37892399  0.09499358     0.92800
C167        C  0.24384203  0.32730757  0.13425826     0.84900
C168        C  0.17780753  0.44111849  0.14609365     0.91200
O169        O  0.36958807  0.99522500  0.13683372    -0.72500
O170        O  0.32502242  0.08644359  0.13069323    -0.73500
O171        O  0.36608029  0.04565824  0.09959493    -0.62100
O172        O  0.32722876  0.03587427  0.16770161    -0.70500
O173        O  0.37248198  0.06029594  0.18400313    -0.70100
O174        O  0.41158011  0.07045939  0.11518291    -0.61400
O175        O  0.37110642  0.11011965  0.14633743    -0.73900
O176        O  0.41403064  0.02093997  0.15325719    -0.72600
Cu177      Cu  0.34535716  0.03986675  0.13315923     1.04600
Cu178      Cu  0.39388782  0.06617934  0.15024903     1.04300
C179        C  0.39915528  0.99417020  0.14633527     0.93700
C180        C  0.34150222  0.11261071  0.13733481     0.92800
C181        C  0.39455531  0.06006899  0.09653017     0.84900
C182        C  0.34338452  0.04675327  0.18652752     0.91200
O183        O  0.67955341  0.79776393  0.14564500    -0.72500
O184        O  0.59172379  0.84329843  0.15378102    -0.73500
O185        O  0.63034602  0.80031377  0.18375573    -0.62100
O186        O  0.64051596  0.83976241  0.11541742    -0.70500
O187        O  0.61363470  0.79567472  0.09975986    -0.70100
O188        O  0.60444729  0.75611462  0.16737771    -0.61400
O189        O  0.56405447  0.80010371  0.13752662    -0.73900
O190        O  0.65406640  0.75300203  0.12976279    -0.72600
Cu191      Cu  0.63635212  0.82180733  0.15020659     1.04600
Cu192      Cu  0.60803511  0.77463588  0.13304524     1.04300
C193        C  0.68095538  0.76843974  0.13641268     0.93700
C194        C  0.56417732  0.82946768  0.14706496     0.92800
C195        C  0.61612133  0.77169899  0.18616980     0.84900
C196        C  0.62891234  0.82357294  0.09681597     0.91200
O197        O  0.96502167  0.79303621  0.42995325    -0.72500
O198        O  0.97592872  0.75540895  0.36182742    -0.73500
O199        O  0.01537618  0.79888727  0.39273116    -0.62100
O200        O  0.92528206  0.75075902  0.39884215    -0.70500
O201        O  0.89992360  0.79586288  0.38372087    -0.70100
O202        O  0.98825549  0.84212150  0.37632108    -0.61400
O203        O  0.94984834  0.79949367  0.34573376    -0.73900
O204        O  0.93918362  0.83771656  0.41458855    -0.72600
Cu205      Cu  0.97136540  0.77294421  0.39638414     1.04600
Cu206      Cu  0.94343452  0.82032629  0.37955152     1.04300
C207        C  0.95028246  0.82108920  0.43311410     0.93700
C208        C  0.96462691  0.77126507  0.34308308     0.92800
C209        C  0.01560717  0.82827782  0.38325234     0.84900
C210        C  0.89839816  0.76621079  0.39241247     0.91200
O211        O  0.20864508  0.99639464  0.39218192    -0.72500
O212        O  0.25614071  0.08652792  0.39855224    -0.73500
O213        O  0.21375915  0.04654755  0.42950770    -0.62100
O214        O  0.25230937  0.03628204  0.36145310    -0.70500
O215        O  0.20767858  0.06157347  0.34516326    -0.70100
O216        O  0.16898003  0.07220478  0.41376474    -0.61400
O217        O  0.21064101  0.11121709  0.38308564    -0.73900
O218        O  0.16497872  0.02306959  0.37573551    -0.72600
Cu219      Cu  0.23432421  0.04045319  0.39597709     1.04600
Cu220      Cu  0.18652977  0.06779868  0.37889265     1.04300
C221        C  0.17905916  0.99596513  0.38265505     0.93700
C222        C  0.24034377  0.11305551  0.39202254     0.92800
C223        C  0.18556195  0.06136210  0.43242029     0.84900
C224        C  0.23643192  0.04752269  0.34265875     0.91200
C225        C  0.07886127  0.88771134  0.36754237     0.20700
C226        C  0.09027140  0.91721969  0.35642052    -0.39100
C227        C  0.11955322  0.93111952  0.36651922     0.19700
C228        C  0.13662924  0.91678813  0.38619724     0.22400
C229        C  0.12521160  0.88688424  0.39733284    -0.39600
C230        C  0.09557657  0.87285882  0.38718971     0.21200
N231        N  0.04952485  0.87222287  0.36302091    -0.32900
C232        C  0.04708498  0.84724651  0.37984244    -0.10500
C233        C  0.07558462  0.84637765  0.39510226    -0.29300
N234        N  0.16190347  0.93709607  0.39380162    -0.45900
C235        C  0.16021858  0.96453329  0.37898137    -0.05200
C236        C  0.13436081  0.96144538  0.36169780    -0.22500
H237        H  0.07629170  0.92947862  0.34179024     0.19300
H238        H  0.13749568  0.87626009  0.41340359     0.18100
H239        H  0.07973000  0.83047632  0.41103342     0.14400
H240        H  0.12612523  0.97996084  0.34837232     0.14200
H241        H  0.03128862  0.87944150  0.35011298     0.32400
H242        H  0.17767090  0.93360797  0.40908631     0.35100
C243        C  0.29083051  0.04388466  0.29010564     0.20700
C244        C  0.32172469  0.04540679  0.27744775    -0.39100
C245        C  0.31966950  0.04418525  0.25153693     0.19700
C246        C  0.28916926  0.04105819  0.23923716     0.22400
C247        C  0.25821388  0.04004615  0.25188889    -0.39600
C248        C  0.26023443  0.04189504  0.27780102     0.21200
N249        N  0.28604136  0.04531031  0.31468534    -0.32900
C250        C  0.25217942  0.04491513  0.31809944    -0.10500
C251        C  0.23513795  0.04287753  0.29552702    -0.29300
N252        N  0.29398524  0.04066050  0.21462195    -0.45900
C253        C  0.32769833  0.04418695  0.21117146    -0.05200
C254        C  0.34461094  0.04647696  0.23377925    -0.22500
H255        H  0.34556994  0.04785046  0.28706907     0.19300
H256        H  0.23431506  0.03845299  0.24224497     0.18100
H257        H  0.20814217  0.04228566  0.29252145     0.14400
H258        H  0.37142101  0.04972228  0.23679128     0.14200
H259        H  0.30465327  0.04739245  0.32831363     0.32400
H260        H  0.27536756  0.03910233  0.20096278     0.35100
C261        C  0.45753605  0.93048099  0.16203957     0.20700
C262        C  0.48725484  0.91901989  0.17295253    -0.39100
C263        C  0.50044189  0.88959038  0.16304536     0.19700
C264        C  0.48528700  0.87242421  0.14370761     0.22400
C265        C  0.45521403  0.88397713  0.13269959    -0.39600
C266        C  0.44187401  0.91379200  0.14267387     0.21200
N267        N  0.44262246  0.95985110  0.16648838    -0.32900
C268        C  0.41726379  0.96246577  0.14985797    -0.10500
C269        C  0.41548727  0.93395182  0.13482181    -0.29300
N270        N  0.50504728  0.84684006  0.13626614    -0.45900
C271        C  0.53293401  0.84845786  0.15085790    -0.05200
C272        C  0.53071037  0.87457279  0.16781319    -0.22500
H273        H  0.50016032  0.93301301  0.18731421     0.19300
H274        H  0.44396961  0.87161229  0.11686286     0.18100
H275        H  0.39914615  0.92988031  0.11903624     0.14400
H276        H  0.54977506  0.88282144  0.18084958     0.14200
H277        H  0.45056311  0.97803258  0.17917184     0.32400
H278        H  0.50096655  0.83090161  0.12120487     0.35100
C279        C  0.29099854  0.18600312  0.12990507     0.20700
C280        C  0.26131789  0.20474626  0.12766029    -0.39100
C281        C  0.26542136  0.23965906  0.12816163     0.19700
C282        C  0.29669195  0.25495031  0.13038391     0.22400
C283        C  0.32640720  0.23615999  0.13280729    -0.39600
C284        C  0.32225158  0.20118174  0.13262222     0.21200
N285        N  0.29372759  0.15243333  0.13084133    -0.32900
C286        C  0.32693651  0.14623516  0.13447608    -0.10500
C287        C  0.34549575  0.17598139  0.13569045    -0.29300
N288        N  0.29346184  0.28852962  0.13158305    -0.45900
C289        C  0.25981789  0.29442638  0.13059408    -0.05200
C290        C  0.24164639  0.26460307  0.12831154    -0.22500
H291        H  0.23672971  0.19301955  0.12627091     0.19300
H292        H  0.35084329  0.24787362  0.13527531     0.18100
H293        H  0.37237469  0.17875964  0.13863611     0.14400
H294        H  0.21450862  0.26154489  0.12780712     0.14200
H295        H  0.27417275  0.13489525  0.12965072     0.32400
H296        H  0.31269646  0.30612092  0.13422861     0.35100
C297        C  0.81086024  0.69443981  0.13171670     0.20700
C298        C  0.77608356  0.68801847  0.13054105    -0.39100
C299        C  0.75530115  0.71630437  0.13110116     0.19700
C300        C  0.76830244  0.74844044  0.13299657     0.22400
C301        C  0.80311350  0.75489274  0.13388642    -0.39600
C302        C  0.82392594  0.72660750  0.13301658     0.21200
N303        N  0.83567146  0.67177289  0.13258975    -0.32900
C304        C  0.86477897  0.68952054  0.13419905    -0.10500
C305        C  0.85861042  0.72388807  0.13433395    -0.29300
N306        N  0.74333016  0.77087577  0.13463862    -0.45900
C307        C  0.71423903  0.75298838  0.13360803    -0.05200
C308        C  0.72058946  0.71882419  0.13120415    -0.22500
H309        H  0.76596510  0.66282276  0.12970668     0.19300
H310        H  0.81319439  0.78002720  0.13556501     0.18100
H311        H  0.87684043  0.74398605  0.13614352     0.14400
H312        H  0.70237707  0.69857962  0.13060082     0.14200
H313        H  0.83296075  0.64572711  0.13241287     0.32400
H314        H  0.74591768  0.79678136  0.13673513     0.35100
C315        C  0.97167926  0.72118233  0.23908312     0.20700
C316        C  0.97156574  0.75169656  0.25206704    -0.39100
C317        C  0.97116983  0.74913600  0.27798061     0.19700
C318        C  0.97174541  0.71849594  0.28997994     0.22400
C319        C  0.97144842  0.68800530  0.27700766    -0.39600
C320        C  0.97099089  0.69056463  0.25111301     0.21200
N321        N  0.97038011  0.71686109  0.21442745    -0.32900
C322        C  0.96805916  0.68332830  0.21073997    -0.10500
C323        C  0.96838445  0.66604767  0.23317870    -0.29300
N324        N  0.97051090  0.72273368  0.31462212    -0.45900
C325        C  0.96831327  0.75623017  0.31837727    -0.05200
C326        C  0.96871471  0.77361324  0.29597220    -0.22500
H327        H  0.97089557  0.77563529  0.24267606     0.19300
H328        H  0.97068750  0.66406684  0.28640178     0.18100
H329        H  0.96645401  0.63926052  0.23598036     0.14400
H330        H  0.96695074  0.80041216  0.29323031     0.14200
H331        H  0.96978600  0.73561812  0.20095160     0.32400
H332        H  0.96990394  0.70392252  0.32805898     0.35100
C333        C  0.07289743  0.54525495  0.15916496     0.20700
C334        C  0.08303278  0.51453318  0.16898067    -0.39100
C335        C  0.11353658  0.50206942  0.16005183     0.19700
C336        C  0.13282185  0.51877459  0.14260236     0.22400
C337        C  0.12250070  0.54975729  0.13260965    -0.39600
C338        C  0.09169465  0.56242183  0.14165706     0.21200
N339        N  0.04362628  0.56070266  0.16351028    -0.32900
C340        C  0.04323271  0.58800355  0.14869707    -0.10500
C341        C  0.07298652  0.59029090  0.13486082    -0.29300
N342        N  0.15974899  0.50008037  0.13611030    -0.45900
C343        C  0.15700883  0.47131639  0.14941800    -0.05200
C344        C  0.12862075  0.47187368  0.16456852    -0.22500
H345        H  0.06765009  0.50075171  0.18205870     0.19300
H346        H  0.13681416  0.56250371  0.11837331     0.18100
H347        H  0.07909045  0.60850745  0.12070880     0.14400
H348        H  0.11932671  0.45203784  0.17643548     0.14200
H349        H  0.02432171  0.55229350  0.17514421     0.32400
H350        H  0.17770350  0.50568398  0.12256841     0.35100
C351        C  0.76806214  0.69117835  0.39713337     0.20700
C352        C  0.80292322  0.68486185  0.39764414    -0.39100
C353        C  0.82385610  0.71328347  0.39734441     0.19700
C354        C  0.81090852  0.74542997  0.39635013     0.22400
C355        C  0.77609323  0.75174630  0.39622130    -0.39600
C356        C  0.75518819  0.72337775  0.39677210     0.21200
N357        N  0.74298428  0.66853039  0.39598758    -0.32900
C358        C  0.71394748  0.68640846  0.39512068    -0.10500
C359        C  0.72048975  0.72072816  0.39578642    -0.29300
N360        N  0.83588503  0.76807506  0.39477502    -0.45900
C361        C  0.86501969  0.75037158  0.39498992    -0.05200
C362        C  0.85861733  0.71605737  0.39675855    -0.22500
H363        H  0.81298923  0.65968280  0.39775381     0.19300
H364        H  0.76603567  0.77689524  0.39525532     0.18100
H365        H  0.70240993  0.74094005  0.39468337     0.14400
H366        H  0.87682536  0.69590440  0.39674467     0.14200
H367        H  0.74547338  0.64248860  0.39546469     0.32400
H368        H  0.83326027  0.79404209  0.39335798     0.35100
C369        C  0.60931981  0.71989378  0.28954237     0.20700
C370        C  0.60896588  0.75050785  0.27679189    -0.39100
C371        C  0.61055779  0.74824132  0.25092561     0.19700
C372        C  0.61163076  0.71774777  0.23871335     0.22400
C373        C  0.61243023  0.68712236  0.25148468    -0.39600
C374        C  0.61155891  0.68942020  0.27739274     0.21200
N375        N  0.60931068  0.71543716  0.31415560    -0.32900
C376        C  0.61228422  0.68198767  0.31776899    -0.10500
C377        C  0.61371561  0.66482838  0.29528447    -0.29300
N378        N  0.61305338  0.72236867  0.21411685    -0.45900
C379        C  0.61355011  0.75600232  0.21067516    -0.05200
C380        C  0.61212515  0.77304126  0.23318709    -0.20900
H381        H  0.60815087  0.77434540  0.28633943     0.19300
H382        H  0.61422364  0.66332355  0.24196171     0.18100
H383        H  0.61638303  0.63812027  0.29244235     0.14400
H384        H  0.61225107  0.79986633  0.23614343     0.14200
H385        H  0.60847451  0.73411436  0.32770282     0.32400
H386        H  0.61450129  0.70380708  0.20051221     0.35100
C387        C  0.25976939  0.20017309  0.39736706     0.20700
C388        C  0.25282192  0.23466062  0.39853398    -0.39100
C389        C  0.28105849  0.25595520  0.39812297     0.19700
C390        C  0.31358791  0.24365091  0.39640386     0.22400
C391        C  0.32053621  0.20919688  0.39561324    -0.39600
C392        C  0.29236842  0.18792266  0.39629731     0.21200
N393        N  0.23736689  0.17493624  0.39629744    -0.32900
C394        C  0.25576386  0.14640092  0.39482182    -0.10500
C395        C  0.29023882  0.15341502  0.39494931    -0.29300
N396        N  0.33591021  0.26884927  0.39473172    -0.45900
C397        C  0.31766565  0.29749688  0.39555766    -0.05200
C398        C  0.28327489  0.29055501  0.39791248    -0.22500
H399        H  0.22730366  0.24419713  0.39919903     0.19300
H400        H  0.34599427  0.19968947  0.39407985     0.18100
H401        H  0.31083253  0.13580545  0.39332794     0.14400
H402        H  0.26269438  0.30830381  0.39839914     0.14200
H403        H  0.21109753  0.17699553  0.39630076     0.32400
H404        H  0.36202989  0.26667881  0.39275048     0.35100
C405        C  0.25875298  0.39588917  0.24952021     0.20700
C406        C  0.25327522  0.39666390  0.27518675    -0.39100
C407        C  0.28234579  0.39957149  0.28989350     0.19700
C408        C  0.31444853  0.40104037  0.27982853     0.22400
C409        C  0.31987273  0.40097985  0.25417390    -0.39600
C410        C  0.29078635  0.39856044  0.23947728     0.21200
N411        N  0.23546946  0.39230141  0.23156190    -0.32900
C412        C  0.25284366  0.39329685  0.20996743    -0.10500
C413        C  0.28733836  0.39731307  0.21415029    -0.29300
N414        N  0.33798381  0.40104558  0.29775780    -0.45900
C415        C  0.32068009  0.39997215  0.31936513    -0.05200
C416        C  0.28595339  0.39944831  0.31525155    -0.22500
H417        H  0.22829911  0.39456051  0.28313458     0.19300
H418        H  0.34492071  0.40212883  0.24624254     0.18100
H419        H  0.30725451  0.39853458  0.20047329     0.14400
H420        H  0.26613144  0.39747557  0.32895455     0.14200
H421        H  0.20943622  0.38963442  0.23381911     0.32400
H422        H  0.36414647  0.40111805  0.29545685     0.35100
C423        C  0.45349867  0.51166992  0.36731361     0.20700
C424        C  0.48259646  0.52378661  0.35576026    -0.39100
C425        C  0.49636593  0.55297544  0.36587708     0.19700
C426        C  0.48230135  0.56928686  0.38599469     0.22400
C427        C  0.45278773  0.55718542  0.39754298    -0.39600
C428        C  0.43888003  0.52767875  0.38736041     0.21200
N429        N  0.43830016  0.48230428  0.36280756    -0.32900
C430        C  0.41370142  0.47919049  0.38000794    -0.10500
C431        C  0.41282388  0.50723512  0.39552829    -0.29300
N432        N  0.50270777  0.59438631  0.39365974    -0.45900
C433        C  0.52997498  0.59333228  0.37845690    -0.05200
C434        C  0.52661444  0.56813189  0.36082038    -0.22500
H435        H  0.49474746  0.51036167  0.34081302     0.19300
H436        H  0.44243948  0.56885726  0.41394834     0.18100
H437        H  0.39719561  0.51085232  0.41172846     0.14400
H438        H  0.54508340  0.56034080  0.34723939     0.14200
H439        H  0.44543897  0.46454709  0.34959568     0.32400
H440        H  0.49957068  0.60943980  0.40931398     0.35100
C441        C  0.44422781  0.10037923  0.99653036     0.20700
C442        C  0.45072584  0.10702489  0.02164474    -0.39100
C443        C  0.43245974  0.08761695  0.03869070     0.19700
C444        C  0.40925510  0.06366526  0.03123253     0.22400
C445        C  0.40292740  0.05686211  0.00611318    -0.39600
C446        C  0.42139858  0.07608254  0.98906122     0.21200
N447        N  0.45689102  0.11667101  0.97684274    -0.32900
C448        C  0.44210003  0.10271235  0.95663958    -0.10500
C449        C  0.41997134  0.07707589  0.96350295    -0.29300
N450        N  0.39363442  0.05016064  0.05093840    -0.45900
C451        C  0.40707838  0.06542572  0.07112929    -0.05200
C452        C  0.43156383  0.08883151  0.06424543    -0.22500
H453        H  0.46814783  0.12642205  0.02747678     0.19300
H454        H  0.38438676  0.03851721  0.00028224     0.18100
H455        H  0.40391270  0.06224494  0.95151409     0.14400
H456        H  0.44561418  0.10555865  0.07623088     0.14200
H457        H  0.47384635  0.13675927  0.97717790     0.32400
H458        H  0.37435790  0.03225671  0.05064065     0.35100
C459        C  0.65054387  0.85378413  0.99021558     0.20700
C460        C  0.62907174  0.83487287  0.00540432    -0.39100
C461        C  0.63336889  0.83946053  0.03094370     0.19700
C462        C  0.65708656  0.86137298  0.04065904     0.22400
C463        C  0.67878707  0.88008606  0.02545763    -0.39600
C464        C  0.67460601  0.87535472  0.99988944     0.21200
N465        N  0.65230250  0.85297300  0.96538434    -0.32900
C466        C  0.67782959  0.87399071  0.95919862    -0.10500
C467        C  0.69237867  0.88841835  0.98021286    -0.29300
N468        N  0.65730614  0.85983612  0.06552345    -0.45900
C469        C  0.63393566  0.83639406  0.07160022    -0.05200
C470        C  0.61833970  0.82329528  0.05054814    -0.22500
H471        H  0.61090361  0.81728875  0.99790024     0.19300
H472        H  0.69800161  0.89651927  0.03298256     0.18100
H473        H  0.71356512  0.90556303  0.98099691     0.14400
H474        H  0.59961727  0.80352800  0.04967306     0.14200
H475        H  0.63769590  0.83831779  0.95344074     0.32400
H476        H  0.67353160  0.87261732  0.07751972     0.35100
C477        C  0.61673354  0.00256996  0.86786883     0.20700
C478        C  0.58600590  0.01272488  0.85759604    -0.39100
C479        C  0.57316900  0.04306019  0.86639165     0.19700
C480        C  0.58963959  0.06220591  0.88405455     0.22400
C481        C  0.62070136  0.05201406  0.89434743    -0.39600
C482        C  0.63366056  0.02135811  0.88552026     0.21200
N483        N  0.63215153  0.97319936  0.86410610    -0.32900
C484        C  0.65923576  0.97277017  0.87939273    -0.10500
C485        C  0.66137511  0.00262546  0.89294071    -0.29300
N486        N  0.57047968  0.08868423  0.89063762    -0.45900
C487        C  0.54159015  0.08586644  0.87722372    -0.05200
C488        C  0.54258384  0.05785873  0.86182858    -0.22500
H489        H  0.57232793  0.99734158  0.84444639     0.19300
H490        H  0.63315843  0.06620131  0.90880348     0.18100
H491        H  0.67927796  0.00876050  0.90739817     0.14400
H492        H  0.52275566  0.04856606  0.84983078     0.14200
H493        H  0.62380846  0.95384256  0.85256390     0.32400
H494        H  0.57584125  0.10637414  0.90435807     0.35100
C495        C  0.64833277  0.58787068  0.53943905     0.20700
C496        C  0.62724306  0.60734300  0.52436628    -0.39100
C497        C  0.63132219  0.60287000  0.49877200     0.19700
C498        C  0.65440495  0.58049904  0.48898620     0.22400
C499        C  0.67568203  0.56131432  0.50403476    -0.39600
C500        C  0.67179475  0.56597045  0.52957326     0.21200
N501        N  0.65040858  0.58841319  0.56427879    -0.32900
C502        C  0.67558550  0.56693500  0.57016028    -0.10500
C503        C  0.68952218  0.55248398  0.54902056    -0.29300
N504        N  0.65452846  0.58195452  0.46416019    -0.45900
C505        C  0.63176011  0.60578879  0.45808369    -0.05200
C506        C  0.61662959  0.61933256  0.47914736    -0.22500
H507        H  0.60956200  0.62520737  0.53198066     0.19300
H508        H  0.69442557  0.54456602  0.49640489     0.18100
H509        H  0.71035837  0.53506631  0.54800428     0.14400
H510        H  0.59835469  0.63939978  0.48000278     0.14200
H511        H  0.63635734  0.60323906  0.57640204     0.32400
H512        H  0.67029119  0.56873718  0.45215902     0.35100
C513        C  0.44476691  0.34175527  0.53091120     0.20700
C514        C  0.45087490  0.33650384  0.50562062    -0.39100
C515        C  0.43049376  0.35481468  0.48933192     0.19700
C516        C  0.40567255  0.37640179  0.49763965     0.22400
C517        C  0.39968348  0.38180622  0.52293813    -0.39600
C518        C  0.42034364  0.36378305  0.53923569     0.21200
N519        N  0.45932208  0.32587304  0.55001110    -0.32900
C520        C  0.44419256  0.33793668  0.57065673    -0.10500
C521        C  0.41992775  0.36187346  0.56472677    -0.29300
N522        N  0.38847696  0.38932196  0.47849241    -0.45900
C523        C  0.40254836  0.37601256  0.45784895    -0.05200
C524        C  0.42896554  0.35448990  0.46383324    -0.22500
H525        H  0.46961168  0.31890490  0.49911326     0.19300
H526        H  0.37992405  0.39826942  0.52944006     0.18100
H527        H  0.40300308  0.37468950  0.57725458     0.14400
H528        H  0.44407964  0.33963302  0.45128948     0.14200
H529        H  0.47762619  0.30712912  0.54901437     0.32400
H530        H  0.36792832  0.40559062  0.47943377     0.35100
C531        C  0.46928399  0.24476262  0.74723010     0.20700
C532        C  0.47157761  0.24984047  0.77289577    -0.39100
C533        C  0.47004412  0.22082725  0.78752173     0.19700
C534        C  0.46602600  0.18919346  0.77738225     0.22400
C535        C  0.46445370  0.18404809  0.75166444    -0.39600
C536        C  0.46647165  0.21304716  0.73700959     0.21200
N537        N  0.46868978  0.26833856  0.72947050    -0.32900
C538        C  0.46608873  0.25152003  0.70775348    -0.10500
C539        C  0.46484590  0.21696741  0.71165433    -0.29300
N540        N  0.46294875  0.16599672  0.79532111    -0.45900
C541        C  0.46542689  0.18294917  0.81701671    -0.05200
C542        C  0.47020905  0.21715603  0.81289666    -0.22500
H543        H  0.47375744  0.27461657  0.78091179     0.19300
H544        H  0.46128324  0.15936033  0.74367397     0.18100
H545        H  0.46202874  0.19747395  0.69785510     0.14400
H546        H  0.47220476  0.23682263  0.82663663     0.14200
H547        H  0.46992164  0.29427456  0.73194395     0.32400
H548        H  0.45904468  0.14029779  0.79297442     0.35100
C549        C  0.57862722  0.38860777  0.65964736     0.20700
C550        C  0.58913489  0.41915992  0.66971565    -0.39100
C551        C  0.61901240  0.43241642  0.66012082     0.19700
C552        C  0.63751363  0.41659555  0.64184009     0.22400
C553        C  0.62688336  0.38566685  0.63164724    -0.39600
C554        C  0.59657965  0.37224331  0.64131103     0.21200
N555        N  0.54926958  0.37312779  0.66410630    -0.32900
C556        C  0.54778466  0.34663847  0.64849379    -0.10500
C557        C  0.57715207  0.34481206  0.63411422    -0.29300
N558        N  0.66361702  0.43625582  0.63466554    -0.45900
C559        C  0.66106145  0.46475334  0.64838109    -0.05200
C560        C  0.63369743  0.46296366  0.66447251    -0.22500
H561        H  0.57423108  0.43245394  0.68331874     0.19300
H562        H  0.64038148  0.37368916  0.61666437     0.18100
H563        H  0.58230968  0.32754126  0.61914200     0.14400
H564        H  0.62464879  0.48231111  0.67683981     0.14200
H565        H  0.53036233  0.38133168  0.67612500     0.32400
H566        H  0.68076301  0.43147407  0.62042580     0.35100
C567        C  0.79124740  0.68641223  0.89937111     0.20700
C568        C  0.76167610  0.70537208  0.90090314    -0.39100
C569        C  0.76605982  0.74019376  0.90022585     0.19700
C570        C  0.79749841  0.75525913  0.89855660     0.22400
C571        C  0.82717336  0.73623252  0.89685058    -0.39600
C572        C  0.82272760  0.70127190  0.89714445     0.21200
N573        N  0.79360572  0.65284783  0.89848617    -0.32900
C574        C  0.82678756  0.64625939  0.89530023    -0.10500
C575        C  0.84576607  0.67578325  0.89440898    -0.29300
N576        N  0.79448499  0.78884102  0.89713068    -0.45900
C577        C  0.76083111  0.79487361  0.89741327    -0.05200
C578        C  0.74243406  0.76520061  0.89945020    -0.22500
H579        H  0.73695752  0.69384330  0.90183960     0.19300
H580        H  0.85176727  0.74774068  0.89475670     0.18100
H581        H  0.87272581  0.67823236  0.89174595     0.14400
H582        H  0.71527325  0.76227907  0.89952279     0.14200
H583        H  0.77379608  0.63555444  0.89925131     0.32400
H584        H  0.81389540  0.80633871  0.89490379     0.35100
C585        C  0.90772833  0.56325575  0.99772961     0.20700
C586        C  0.90040217  0.55804450  0.02286274    -0.39100
C587        C  0.92021285  0.57626579  0.03968899     0.19700
C588        C  0.94524112  0.59817845  0.03200920     0.22400
C589        C  0.95281409  0.60311332  0.00687054    -0.39600
C590        C  0.93312490  0.58473594  0.99004015     0.21200
N591        N  0.89106306  0.55063052  0.97817932    -0.32900
C592        C  0.90597739  0.56401144  0.95786358    -0.10500
C593        C  0.93249988  0.58527001  0.96448597    -0.29300
N594        N  0.95863412  0.61443140  0.05147143    -0.45900
C595        C  0.94210977  0.60275317  0.07169286    -0.05200
C596        C  0.91817062  0.57864086  0.06512901    -0.22500
H597        H  0.88009619  0.54176759  0.02884315     0.19300
H598        H  0.97192799  0.62072822  0.00084541     0.18100
H599        H  0.94807830  0.60030386  0.95232456     0.14400
H600        H  0.90052495  0.56587828  0.07718626     0.14200
H601        H  0.87013471  0.53465826  0.97865546     0.32400
H602        H  0.97720342  0.63306032  0.05096004     0.35100
C603        C  0.81794604  0.54184752  0.77912116     0.20700
C604        C  0.82311844  0.54043952  0.75343118    -0.39100
C605        C  0.79384660  0.54155384  0.73881527     0.19700
C606        C  0.76191885  0.54441254  0.74898410     0.22400
C607        C  0.75671731  0.54523171  0.77466672    -0.39600
C608        C  0.78593048  0.54357733  0.78928453     0.21200
N609        N  0.84160763  0.54241665  0.79698512    -0.32900
C610        C  0.82444634  0.54402771  0.81864844    -0.10500
C611        C  0.78969823  0.54452614  0.81461583    -0.29300
N612        N  0.73839083  0.54663659  0.73111920    -0.45900
C613        C  0.75543554  0.54466534  0.70943519    -0.05200
C614        C  0.79003893  0.54130617  0.71346549    -0.22500
H615        H  0.84808851  0.53899077  0.74540823     0.19300
H616        H  0.73179450  0.54739010  0.78267715     0.18100
H617        H  0.76993112  0.54644485  0.82835908     0.14400
H618        H  0.80979527  0.53984365  0.69968171     0.14200
H619        H  0.86774757  0.54187372  0.79461457     0.32400
H620        H  0.71240213  0.54939868  0.73350785     0.35100
C621        C  0.32499588  0.22703282  0.89657107     0.20700
C622        C  0.30647844  0.25692243  0.89504928    -0.39100
C623        C  0.27121171  0.25338351  0.89619966     0.19700
C624        C  0.25557034  0.22252832  0.89892885     0.22400
C625        C  0.27403053  0.19269346  0.90017920    -0.39600
C626        C  0.30918336  0.19618863  0.89875438     0.21200
N627        N  0.35870924  0.22329793  0.89484108    -0.32900
C628        C  0.36412766  0.18977423  0.89550532    -0.10500
C629        C  0.33388456  0.17216894  0.89797238    -0.29300
N630        N  0.22179664  0.22573357  0.89869452    -0.45900
C631        C  0.21586419  0.25882448  0.89537956    -0.05200
C632        C  0.24604119  0.27687906  0.89385835    -0.22500
H633        H  0.31856320  0.28104526  0.89258664     0.19300
H634        H  0.26188337  0.16844249  0.90156766     0.18100
H635        H  0.33041355  0.14526587  0.89851026     0.14400
H636        H  0.24911138  0.30351537  0.89079997     0.14200
H637        H  0.37669320  0.24217054  0.89232291     0.32400
H638        H  0.20393481  0.20649114  0.89977036     0.35100
C639        C  0.15584752  0.36321431  0.98782424     0.20700
C640        C  0.17765453  0.38133048  0.00334633    -0.39100
C641        C  0.17259646  0.37684028  0.02883183     0.19700
C642        C  0.14766524  0.35601319  0.03816775     0.22400
C643        C  0.12607403  0.33767114  0.02264705    -0.39600
C644        C  0.13123159  0.34203067  0.99717221     0.21200
N645        N  0.15662625  0.36171352  0.96296792    -0.32900
C646        C  0.13264385  0.33906394  0.95652222    -0.10500
C647        C  0.11622274  0.32632843  0.97732656    -0.29300
N648        N  0.14900735  0.35495889  0.06302187    -0.45900
C649        C  0.17520137  0.37500141  0.06951319    -0.05200
C650        C  0.19044184  0.38918867  0.04871268    -0.22500
H651        H  0.19759602  0.39711658  0.99612297     0.19300
H652        H  0.10722161  0.32061422  0.02986632     0.18100
H653        H  0.09685754  0.30716357  0.97788591     0.14400
H654        H  0.21232365  0.40546574  0.04818470     0.14200
H655        H  0.17352118  0.37400867  0.95122312     0.32400
H656        H  0.13386172  0.34057455  0.07476021     0.35100
C657        C  0.95292758  0.42847956  0.86559248     0.20700
C658        C  0.98226734  0.41707213  0.85405118    -0.39100
C659        C  0.99640423  0.38803311  0.86395478     0.19700
C660        C  0.98235799  0.37110326  0.88380998     0.22400
C661        C  0.95258174  0.38252530  0.89538157    -0.39600
C662        C  0.93839067  0.41203170  0.88549227     0.21200
N663        N  0.93776143  0.45783131  0.86146698    -0.32900
C664        C  0.91336987  0.46074152  0.87882772    -0.10500
C665        C  0.91244767  0.43235216  0.89403271    -0.29300
N666        N  0.00315196  0.34636510  0.89136989    -0.45900
C667        C  0.03067473  0.34829747  0.87642330    -0.05200
C668        C  0.02706418  0.37372009  0.85901336    -0.22500
H669        H  0.99441793  0.43104319  0.83935554     0.19300
H670        H  0.94235855  0.37047490  0.91169156     0.18100
H671        H  0.89715256  0.42855576  0.91038976     0.14400
H672        H  0.04558276  0.38221838  0.84567444     0.14200
H673        H  0.94508873  0.47592221  0.84854336     0.32400
H674        H  0.00006065  0.33098749  0.90685151     0.35100
C675        C  0.25483122  0.22124930  0.63063170     0.20700
C676        C  0.27364735  0.25105890  0.62976908    -0.39100
C677        C  0.30883424  0.24721055  0.62963520     0.19700
C678        C  0.32417485  0.21607956  0.62997732     0.22400
C679        C  0.30535065  0.18629936  0.63117047    -0.39600
C680        C  0.27017716  0.19015364  0.63162738     0.21200
N681        N  0.22105481  0.21810255  0.63157985    -0.32900
C682        C  0.21494405  0.18478418  0.63356627    -0.10500
C683        C  0.24492986  0.16657536  0.63368369    -0.29300
N684        N  0.35798183  0.21925667  0.63044697    -0.45900
C685        C  0.36412193  0.25265912  0.63090831    -0.05200
C686        C  0.33412777  0.27087187  0.63034030    -0.22500
H687        H  0.26179219  0.27545583  0.62968520     0.19300
H688        H  0.31721815  0.16194664  0.63213483     0.18100
H689        H  0.24783466  0.13970264  0.63525603     0.14400
H690        H  0.33124287  0.29781842  0.63105005     0.14200
H691        H  0.20332408  0.23741630  0.63153210     0.32400
H692        H  0.37568775  0.19997941  0.63153428     0.35100
C693        C  0.16860739  0.06424884  0.49729962     0.20700
C694        C  0.17350112  0.05694275  0.52248096    -0.39100
C695        C  0.15451593  0.07616869  0.53914988     0.19700
C696        C  0.13264122  0.10096001  0.53126639     0.22400
C697        C  0.12756090  0.10807025  0.50611698    -0.39600
C698        C  0.14624269  0.08863412  0.48947124     0.21200
N699        N  0.18489535  0.05083874  0.47788958    -0.32900
C700        C  0.17260119  0.06664015  0.45759044    -0.10500
C701        C  0.14829566  0.09023436  0.46404356    -0.29300
N702        N  0.11943512  0.11729733  0.55066967    -0.45900
C703        C  0.13286962  0.10282310  0.57109826    -0.05200
C704        C  0.15467406  0.07683685  0.56470097    -0.22500
H705        H  0.19136020  0.03825450  0.52864915     0.19300
H706        H  0.11088028  0.12782690  0.49998678     0.18100
H707        H  0.13503994  0.10725420  0.45187480     0.14400
H708        H  0.16990896  0.06173907  0.57700581     0.14200
H709        H  0.20373103  0.03260012  0.47845211     0.32400
H710        H  0.10314203  0.13781346  0.55002710     0.35100
C711        C  0.11411898  0.22337667  0.73779536     0.20700
C712        C  0.11836244  0.25363766  0.75070188    -0.39100
C713        C  0.11626207  0.25144922  0.77657066     0.19700
C714        C  0.10985082  0.22148649  0.78860874     0.22400
C715        C  0.10604648  0.19114076  0.77572046    -0.39600
C716        C  0.10876206  0.19323034  0.74987020     0.21200
N717        N  0.11595155  0.21866060  0.71321309    -0.32900
C718        C  0.11250408  0.18521649  0.70964773    -0.10500
C719        C  0.10797261  0.16845423  0.73204868    -0.29300
N720        N  0.10901033  0.22608863  0.81323912    -0.45900
C721        C  0.11537062  0.25911868  0.81693886    -0.05200
C722        C  0.12013447  0.27577177  0.79451025    -0.22500
H723        H  0.12338485  0.27707347  0.74130745     0.19300
H724        H  0.10181100  0.16757969  0.78514990     0.18100
H725        H  0.10482680  0.14178574  0.73489057     0.14400
H726        H  0.12569029  0.30206815  0.79172980     0.14200
H727        H  0.12043852  0.23689952  0.69973452     0.32400
H728        H  0.10496032  0.20777294  0.82673398     0.35100
C729        C  0.81731470  0.74353793  0.63112965     0.20700
C730        C  0.82410251  0.70899441  0.63046179    -0.39100
C731        C  0.79579355  0.68779530  0.63109794     0.19700
C732        C  0.76329894  0.70021132  0.63262266     0.22400
C733        C  0.75648159  0.73474332  0.63297423    -0.39600
C734        C  0.78475776  0.75592625  0.63200165     0.21200
N735        N  0.83985596  0.76871370  0.63178455    -0.32900
C736        C  0.82160603  0.79737245  0.63280485    -0.10500
C737        C  0.78707858  0.79046938  0.63278485    -0.29300
N738        N  0.74088497  0.67503822  0.63422473    -0.45900
C739        C  0.75905629  0.64629655  0.63347140    -0.05200
C740        C  0.79347782  0.65319288  0.63136957    -0.22500
H741        H  0.84957828  0.69934614  0.62986595     0.19300
H742        H  0.73104910  0.74438570  0.63427280     0.18100
H743        H  0.76656566  0.80821309  0.63414845     0.14400
H744        H  0.81401300  0.63539622  0.63090286     0.14200
H745        H  0.86611474  0.76653757  0.63184328     0.32400
H746        H  0.71473726  0.67728030  0.63594752     0.35100
C747        C  0.92580765  0.86187488  0.48918057     0.20700
C748        C  0.90711460  0.88379622  0.50411017    -0.39100
C749        C  0.90997981  0.87873285  0.52972576     0.19700
C750        C  0.93018059  0.85394148  0.53973774     0.22400
C751        C  0.94865955  0.83183135  0.52480502    -0.39600
C752        C  0.94559801  0.83674965  0.49918126     0.21200
N753        N  0.92591327  0.86031863  0.46431203    -0.32900
C754        C  0.94560258  0.83377327  0.45845876    -0.10500
C755        C  0.95846507  0.81855220  0.47970895    -0.29300
N756        N  0.92748096  0.85345241  0.56454614    -0.45900
C757        C  0.90504603  0.87779666  0.57032382    -0.05200
C758        C  0.89361277  0.89413626  0.54910627    -0.22500
H759        H  0.89084859  0.90282355  0.49634029     0.19300
H760        H  0.96364670  0.81176895  0.53254404     0.18100
H761        H  0.97414812  0.79644196  0.48077459     0.14400
H762        H  0.87499737  0.91386299  0.54797349     0.14200
H763        H  0.91240730  0.87554111  0.45213355     0.32400
H764        H  0.93897026  0.83661890  0.57668949     0.35100
C765        C  0.81603083  0.89545538  0.74865131     0.20700
C766        C  0.82130052  0.89446942  0.77431432    -0.39100
C767        C  0.79207285  0.89426424  0.78891988     0.19700
C768        C  0.75996726  0.89429207  0.77879353     0.22400
C769        C  0.75468462  0.89571116  0.75308857    -0.39600
C770        C  0.78398052  0.89659684  0.73846720     0.21200
N771        N  0.83967273  0.89530968  0.73082195    -0.32900
C772        C  0.82258914  0.89689876  0.70912299    -0.10500
C773        C  0.78781672  0.89789268  0.71311476    -0.29300
N774        N  0.73642364  0.89293839  0.79673038    -0.45900
C775        C  0.75379093  0.89267301  0.81837112    -0.05200
C776        C  0.78848839  0.89359551  0.81424286    -0.22500
H777        H  0.84632712  0.89387090  0.78232976     0.19300
H778        H  0.72965663  0.89604678  0.74506696     0.18100
H779        H  0.76803559  0.89849779  0.69929615     0.14400
H780        H  0.80840699  0.89319335  0.82796094     0.14200
H781        H  0.86578519  0.89412363  0.73324469     0.32400
H782        H  0.71026219  0.89252770  0.79443516     0.35100
C783        C  0.93778905  0.02860152  0.64142332     0.20700
C784        C  0.95152642  0.05663736  0.62912435    -0.39100
C785        C  0.97994501  0.07148768  0.64040653     0.19700
C786        C  0.99343794  0.05919468  0.66224124     0.22400
C787        C  0.97956979  0.03162344  0.67459805    -0.39600
C788        C  0.95152016  0.01677148  0.66330878     0.21200
N789        N  0.91389092  0.00728611  0.63299890    -0.32900
C790        C  0.91313926  0.98157745  0.64945960    -0.10500
C791        C  0.93594102  0.98690391  0.66867867    -0.29300
N792        N  0.02285899  0.07424307  0.66746741    -0.45900
C793        C  0.02844973  0.09637534  0.64894470    -0.05200
C794        C  0.00197713  0.09587794  0.63183678    -0.22500
H795        H  0.94210971  0.06496549  0.61135398     0.19300
H796        H  0.99122052  0.02106336  0.69095206     0.18100
H797        H  0.94216207  0.96984571  0.68356493     0.14400
H798        H  0.00065962  0.10914596  0.61439299     0.14200
H799        H  0.90104411  0.00868851  0.61613519     0.32400
H800        H  0.03924916  0.06830460  0.68196876     0.35100
loop_ 
_geom_bond_atom_site_label_1 
_geom_bond_atom_site_label_2 
_geom_bond_distance 
_geom_bond_site_symmetry_2 
_ccdc_geom_bond_type 
O1           Cu9   1.998       .  S
O1           C11   1.276       .  A
O2           Cu9   1.998       .  S
O2           C12   1.275       .  A
O3           Cu9   2.017       .  S
O3           C13   1.278       .  A
O4           Cu9   2.017       .  S
O4           C14   1.278       .  A
O5          Cu10   2.007       .  S
O5           C14   1.277       .  A
O6          Cu10   2.004       .  S
O6           C13   1.277       .  A
O7          Cu10   2.031       .  S
O7           C12   1.281       .  A
O8          Cu10   2.036       .  S
O8           C11   1.280       .  A
Cu9         Cu10   2.375       .  S
C11         C790   1.473       .  S
C12         C736   1.473       .  S
C13         C757   1.470       .  S
C14         C772   1.471       .  S
O15         Cu23   2.020       .  S
O15          C25   1.279       .  A
O16         Cu23   2.018       .  S
O16          C26   1.279       .  A
O17         Cu23   1.995       .  S
O17          C27   1.276       .  A
O18         Cu23   1.999       .  S
O18          C28   1.276       .  A
O19         Cu24   2.024       .  S
O19          C28   1.279       .  A
O20         Cu24   2.031       .  S
O20          C27   1.279       .  A
O21         Cu24   2.003       .  S
O21          C26   1.276       .  A
O22         Cu24   1.998       .  S
O22          C25   1.276       .  A
Cu23        Cu24   2.376       .  S
C25         C703   1.470       .  S
C26         C718   1.468       .  S
C27         C793   1.470       .  S
C28         C682   1.471       .  S
O29         Cu37   2.018       .  S
O29          C39   1.279       .  A
O30         Cu37   2.019       .  S
O30          C40   1.279       .  A
O31         Cu37   1.993       .  S
O31          C41   1.276       .  A
O32         Cu37   1.990       .  S
O32          C42   1.274       .  A
O33         Cu38   2.035       .  S
O33          C42   1.281       .  A
O34         Cu38   2.040       .  S
O34          C41   1.280       .  A
O35         Cu38   2.004       .  S
O35          C40   1.276       .  A
O36         Cu38   1.995       .  S
O36          C39   1.276       .  A
Cu37        Cu38   2.375       .  S
C39         C646   1.467       .  S
C40         C721   1.471       .  S
C41         C667   1.475       .  S
C42         C631   1.472       .  S
O43         Cu51   2.002       .  S
O43          C53   1.276       .  A
O44         Cu51   1.997       .  S
O44          C54   1.275       .  A
O45         Cu51   2.032       .  S
O45          C55   1.281       .  A
O46         Cu51   2.043       .  S
O46          C56   1.281       .  A
O47         Cu52   1.983       .  S
O47          C56   1.274       .  A
O48         Cu52   1.987       .  S
O48          C55   1.274       .  A
O49         Cu52   2.023       .  S
O49          C54   1.280       .  A
O50         Cu52   2.023       .  S
O50          C53   1.279       .  A
Cu51        Cu52   2.375       .  S
C53         C610   1.470       .  S
C54         C592   1.471       .  S
C55         C574   1.469       .  S
C56         C664   1.472       .  S
O57         Cu65   2.036       .  S
O57          C67   1.281       .  A
O58         Cu65   2.047       .  S
O58          C68   1.281       .  A
O59         Cu65   2.008       .  S
O59          C69   1.277       .  A
O60         Cu65   2.002       .  S
O60          C70   1.276       .  A
O61         Cu66   2.015       .  S
O61          C70   1.278       .  A
O62         Cu66   2.019       .  S
O62          C69   1.279       .  A
O63         Cu66   1.987       .  S
O63          C68   1.275       .  A
O64         Cu66   1.989       .  S
O64          C67   1.274       .  A
Cu65        Cu66   2.375       .  S
C67         C685   1.471       .  S
C68         C556   1.477       .  S
C69         C538   1.471       .  S
C70         C520   1.469       .  S
O71         Cu79   1.988       .  S
O71          C81   1.275       .  A
O72         Cu79   1.989       .  S
O72          C82   1.274       .  A
O73         Cu79   2.018       .  S
O73          C83   1.279       .  A
O74         Cu79   2.021       .  S
O74          C84   1.279       .  A
O75         Cu80   2.000       .  S
O75          C84   1.276       .  A
O76         Cu80   1.994       .  S
O76          C83   1.275       .  A
O77         Cu80   2.044       .  S
O77          C82   1.283       .  A
O78         Cu80   2.053       .  S
O78          C81   1.282       .  A
Cu79        Cu80   2.374       .  S
C81         C559   1.479       .  S
C82         C739   1.475       .  S
C83         C502   1.468       .  S
C84         C613   1.470       .  S
O85         Cu93   1.985       .  S
O85          C95   1.274       .  A
O86         Cu93   1.986       .  S
O86          C96   1.274       .  A
O87         Cu93   2.024       .  S
O87          C97   1.279       .  A
O88         Cu93   2.019       .  S
O88          C98   1.279       .  A
O89         Cu94   1.998       .  S
O89          C98   1.276       .  A
O90         Cu94   2.001       .  S
O90          C97   1.276       .  A
O91         Cu94   2.048       .  S
O91          C96   1.282       .  A
O92         Cu94   2.039       .  S
O92          C95   1.281       .  A
Cu93        Cu94   2.375       .  S
C95         C577   1.471       .  S
C96         C484   1.476       .  S
C97         C775   1.470       .  S
C98         C466   1.470       .  S
O99        Cu107   2.041       .  S
O99         C109   1.281       .  A
O100       Cu107   2.045       .  S
O100        C110   1.282       .  A
O101       Cu107   2.006       .  S
O101        C111   1.276       .  A
O102       Cu107   2.004       .  S
O102        C112   1.276       .  A
O103       Cu108   2.029       .  S
O103        C112   1.280       .  A
O104       Cu108   2.029       .  S
O104        C111   1.280       .  A
O105       Cu108   1.987       .  S
O105        C110   1.275       .  A
O106       Cu108   1.988       .  S
O106        C109   1.274       .  A
Cu107      Cu108   2.373       .  S
C109        C628   1.472       .  S
C110        C487   1.476       .  S
C111        C541   1.474       .  S
C112        C448   1.476       .  S
O113       Cu121   2.033       .  S
O113        C123   1.281       .  A
O114       Cu121   2.036       .  S
O114        C124   1.280       .  A
O115       Cu121   2.002       .  S
O115        C125   1.276       .  A
O116       Cu121   1.999       .  S
O116        C126   1.276       .  A
O117       Cu122   2.017       .  S
O117        C126   1.279       .  A
O118       Cu122   2.016       .  S
O118        C125   1.278       .  A
O119       Cu122   1.987       .  S
O119        C124   1.275       .  A
O120       Cu122   1.993       .  S
O120        C123   1.275       .  A
Cu121      Cu122   2.376       .  S
C123        C397   1.472       .  S
C124        C430   1.470       .  S
C125        C415   1.467       .  S
C126        C523   1.469       .  S
O127       Cu135   1.993       .  S
O127        C137   1.274       .  A
O128       Cu135   1.986       .  S
O128        C138   1.275       .  A
O129       Cu135   2.020       .  S
O129        C139   1.279       .  A
O130       Cu135   2.016       .  S
O130        C140   1.279       .  A
O131       Cu136   1.995       .  S
O131        C140   1.275       .  A
O132       Cu136   1.998       .  S
O132        C139   1.276       .  A
O133       Cu136   2.036       .  S
O133        C138   1.280       .  A
O134       Cu136   2.032       .  S
O134        C137   1.281       .  A
Cu135      Cu136   2.376       .  S
C137        C358   1.471       .  S
C138        C433   1.471       .  S
C139        C376   1.468       .  S
C140        C505   1.467       .  S
O141       Cu149   1.982       .  S
O141        C151   1.273       .  A
O142       Cu149   1.978       .  S
O142        C152   1.274   1_655  A
O143       Cu149   2.021       .  S
O143        C153   1.279       .  A
O144       Cu149   2.019       .  S
O144        C154   1.279       .  A
O145       Cu150   2.005       .  S
O145        C154   1.277       .  A
O146       Cu150   2.007       .  S
O146        C153   1.276       .  A
O147       Cu150   2.036   1_455  S
O147        C152   1.280       .  A
O148       Cu150   2.031       .  S
O148        C151   1.280       .  A
Cu149      Cu150   2.376       .  S
C151        C304   1.466       .  S
C152        C340   1.470       .  S
C153        C322   1.471       .  S
C154        C595   1.471       .  S
O155       Cu163   2.026       .  S
O155        C165   1.280       .  A
O156       Cu163   2.022       .  S
O156        C166   1.279       .  A
O157       Cu163   1.984       .  S
O157        C167   1.274       .  A
O158       Cu163   1.980       .  S
O158        C168   1.274       .  A
O159       Cu164   2.046       .  S
O159        C168   1.282       .  A
O160       Cu164   2.042       .  S
O160        C167   1.282       .  A
O161       Cu164   1.993       .  S
O161        C166   1.275       .  A
O162       Cu164   1.997       .  S
O162        C165   1.275       .  A
Cu163      Cu164   2.374       .  S
C165        C412   1.470       .  S
C166        C649   1.469       .  S
C167        C289   1.472       .  S
C168        C343   1.473       .  S
O169       Cu177   2.036   1_565  S
O169        C179   1.280       .  A
O170       Cu177   2.033       .  S
O170        C180   1.281       .  A
O171       Cu177   2.004       .  S
O171        C181   1.276       .  A
O172       Cu177   2.006       .  S
O172        C182   1.276       .  A
O173       Cu178   2.025       .  S
O173        C182   1.280       .  A
O174       Cu178   2.027       .  S
O174        C181   1.280       .  A
O175       Cu178   1.986       .  S
O175        C180   1.274       .  A
O176       Cu178   1.983       .  S
O176        C179   1.274   1_545  A
Cu177      Cu178   2.375       .  S
C179        C268   1.469       .  S
C180        C286   1.471       .  S
C181        C451   1.475       .  S
C182        C253   1.473       .  S
O183       Cu191   1.981       .  S
O183        C193   1.273       .  A
O184       Cu191   1.978       .  S
O184        C194   1.274       .  A
O185       Cu191   2.019       .  S
O185        C195   1.279       .  A
O186       Cu191   2.018       .  S
O186        C196   1.279       .  A
O187       Cu192   1.997       .  S
O187        C196   1.276       .  A
O188       Cu192   2.001       .  S
O188        C195   1.276       .  A
O189       Cu192   2.035       .  S
O189        C194   1.280       .  A
O190       Cu192   2.029       .  S
O190        C193   1.281       .  A
Cu191      Cu192   2.376       .  S
C193        C307   1.466       .  S
C194        C271   1.468       .  S
C195        C379   1.468       .  S
C196        C469   1.468       .  S
O197       Cu205   1.998       .  S
O197        C207   1.276       .  A
O198       Cu205   2.001       .  S
O198        C208   1.276       .  A
O199       Cu205   2.036   1_455  S
O199        C209   1.280       .  A
O200       Cu205   2.032       .  S
O200        C210   1.281       .  A
O201       Cu206   1.992       .  S
O201        C210   1.275       .  A
O202       Cu206   1.984       .  S
O202        C209   1.274   1_655  A
O203       Cu206   2.023       .  S
O203        C208   1.279       .  A
O204       Cu206   2.022       .  S
O204        C207   1.279       .  A
Cu205      Cu206   2.375       .  S
C207        C754   1.471       .  S
C208        C325   1.470       .  S
C209        C232   1.469       .  S
C210        C361   1.471       .  S
O211       Cu219   2.039   1_565  S
O211        C221   1.280       .  A
O212       Cu219   2.034       .  S
O212        C222   1.281       .  A
O213       Cu219   2.001       .  S
O213        C223   1.276       .  A
O214       Cu219   2.004       .  S
O214        C224   1.276       .  A
O215       Cu220   2.021       .  S
O215        C224   1.279       .  A
O216       Cu220   2.016       .  S
O216        C223   1.279       .  A
O217       Cu220   1.989       .  S
O217        C222   1.274       .  A
O218       Cu220   1.984       .  S
O218        C221   1.275   1_545  A
Cu219      Cu220   2.375       .  S
C221        C235   1.471       .  S
C222        C394   1.470       .  S
C223        C700   1.469       .  S
C224        C250   1.470       .  S
C225        C230   1.385       .  A
C225        C226   1.397       .  A
C225        N231   1.338       .  A
C226        C227   1.395       .  A
C226        H237   1.083       .  S
C227        C236   1.369       .  A
C227        C228   1.384       .  A
C228        C229   1.410       .  A
C228        N234   1.350       .  A
C229        C230   1.410       .  A
C229        H238   1.082       .  S
C230        C233   1.387       .  A
N231        C232   1.352       .  A
N231        H241   1.045       .  S
C232        C233   1.398       .  A
C233        H239   1.082       .  S
N234        C235   1.359       .  A
N234        H242   1.045       .  S
C235        C236   1.391       .  A
C236        H240   1.083       .  S
C243        C248   1.385       .  A
C243        C244   1.404       .  A
C243        N249   1.342       .  A
C244        C245   1.402       .  A
C244        H255   1.082       .  S
C245        C254   1.381       .  A
C245        C246   1.384       .  A
C246        C247   1.405       .  A
C246        N252   1.343       .  A
C247        C248   1.403       .  A
C247        H256   1.082       .  S
C248        C251   1.382       .  A
N249        C250   1.355       .  A
N249        H259   1.045       .  S
C250        C251   1.395       .  A
C251        H257   1.082       .  S
N252        C253   1.356       .  A
N252        H260   1.045       .  S
C253        C254   1.395       .  A
C254        H258   1.082       .  S
C261        C266   1.385       .  A
C261        C262   1.395       .  A
C261        N267   1.336       .  A
C262        C263   1.394       .  A
C262        H273   1.083       .  S
C263        C272   1.367       .  A
C263        C264   1.384       .  A
C264        C265   1.411       .  A
C264        N270   1.350       .  A
C265        C266   1.410       .  A
C265        H274   1.082       .  S
C266        C269   1.388       .  A
N267        C268   1.352       .  A
N267        H277   1.045       .  S
C268        C269   1.399       .  A
C269        H275   1.082       .  S
N270        C271   1.358       .  A
N270        H278   1.044       .  S
C271        C272   1.390       .  A
C272        H276   1.083       .  S
C279        C284   1.385       .  A
C279        C280   1.401       .  A
C279        N285   1.345       .  A
C280        C281   1.403       .  A
C280        H291   1.082       .  S
C281        C290   1.373       .  A
C281        C282   1.385       .  A
C282        C283   1.404       .  A
C282        N288   1.348       .  A
C283        C284   1.405       .  A
C283        H292   1.082       .  S
C284        C287   1.376       .  A
N285        C286   1.354       .  A
N285        H295   1.045       .  S
C286        C287   1.396       .  A
C287        H293   1.082       .  S
N288        C289   1.356       .  A
N288        H296   1.045       .  S
C289        C290   1.395       .  A
C290        H294   1.083       .  S
C297        C302   1.385       .  A
C297        C298   1.403       .  A
C297        N303   1.339       .  A
C298        C299   1.400       .  A
C298        H309   1.082       .  S
C299        C308   1.380       .  A
C299        C300   1.385       .  A
C300        C301   1.404       .  A
C300        N306   1.340       .  A
C301        C302   1.401       .  A
C301        H310   1.082       .  S
C302        C305   1.381       .  A
N303        C304   1.355       .  A
N303        H313   1.045       .  S
C304        C305   1.394       .  A
C305        H311   1.082       .  S
N306        C307   1.355       .  A
N306        H314   1.045       .  S
C307        C308   1.393       .  A
C308        H312   1.082       .  S
C315        C320   1.385       .  A
C315        C316   1.405       .  A
C315        N321   1.343       .  A
C316        C317   1.403       .  A
C316        H327   1.082       .  S
C317        C326   1.381       .  A
C317        C318   1.385       .  A
C318        C319   1.404       .  A
C318        N324   1.342       .  A
C319        C320   1.402       .  A
C319        H328   1.082       .  S
C320        C323   1.380       .  A
N321        C322   1.356       .  A
N321        H331   1.045       .  S
C322        C323   1.395       .  A
C323        H329   1.082       .  S
N324        C325   1.355       .  A
N324        H332   1.045       .  S
C325        C326   1.395       .  A
C326        H330   1.082       .  S
C333        C338   1.385       .  A
C333        C334   1.396       .  A
C333        N339   1.336       .  A
C334        C335   1.395       .  A
C334        H345   1.083       .  S
C335        C344   1.369       .  A
C335        C336   1.384       .  A
C336        C337   1.411       .  A
C336        N342   1.350       .  A
C337        C338   1.410       .  A
C337        H346   1.082       .  S
C338        C341   1.388       .  A
N339        C340   1.352       .  A
N339        H349   1.045       .  S
C340        C341   1.399       .  A
C341        H347   1.082       .  S
N342        C343   1.359       .  A
N342        H350   1.045       .  S
C343        C344   1.392       .  A
C344        H348   1.083       .  S
C351        C356   1.384       .  A
C351        C352   1.406       .  A
C351        N357   1.343       .  A
C352        C353   1.404       .  A
C352        H363   1.082       .  S
C353        C362   1.382       .  A
C353        C354   1.384       .  A
C354        C355   1.404       .  A
C354        N360   1.341       .  A
C355        C356   1.401       .  A
C355        H364   1.082       .  S
C356        C359   1.380       .  A
N357        C358   1.357       .  A
N357        H367   1.045       .  S
C358        C359   1.394       .  A
C359        H365   1.082       .  S
N360        C361   1.356       .  A
N360        H368   1.045       .  S
C361        C362   1.395       .  A
C362        H366   1.082       .  S
C369        C374   1.385       .  A
C369        C370   1.403       .  A
C369        N375   1.341       .  A
C370        C371   1.401       .  A
C370        H381   1.082       .  S
C371        C380   1.379       .  A
C371        C372   1.385       .  A
C372        C373   1.404       .  A
C372        N378   1.342       .  A
C373        C374   1.403       .  A
C373        H382   1.082       .  S
C374        C377   1.381       .  A
N375        C376   1.355       .  A
N375        H385   1.045       .  S
C376        C377   1.395       .  A
C377        H383   1.082       .  S
N378        C379   1.355       .  A
N378        H386   1.045       .  S
C379        C380   1.394       .  A
C380        H384   1.082       .  S
C387        C392   1.384       .  A
C387        C388   1.406       .  A
C387        N393   1.342       .  A
C388        C389   1.404       .  A
C388        H399   1.082       .  S
C389        C398   1.384       .  A
C389        C390   1.384       .  A
C390        C391   1.404       .  A
C390        N396   1.341       .  A
C391        C392   1.401       .  A
C391        H400   1.082       .  S
C392        C395   1.381       .  A
N393        C394   1.357       .  A
N393        H403   1.045       .  S
C394        C395   1.394       .  A
C395        H401   1.082       .  S
N396        C397   1.355       .  A
N396        H404   1.045       .  S
C397        C398   1.396       .  A
C398        H402   1.082       .  S
C405        C410   1.385       .  A
C405        C406   1.403       .  A
C405        N411   1.346       .  A
C406        C407   1.404       .  A
C406        H417   1.082       .  S
C407        C416   1.377       .  A
C407        C408   1.385       .  A
C408        C409   1.402       .  A
C408        N414   1.344       .  A
C409        C410   1.402       .  A
C409        H418   1.082       .  S
C410        C413   1.375       .  A
N411        C412   1.355       .  A
N411        H421   1.044       .  S
C412        C413   1.394       .  A
C413        H419   1.082       .  S
N414        C415   1.355       .  A
N414        H422   1.045       .  S
C415        C416   1.394       .  A
C416        H420   1.082       .  S
C423        C428   1.385       .  A
C423        C424   1.397       .  A
C423        N429   1.338       .  A
C424        C425   1.396       .  A
C424        H435   1.083       .  S
C425        C434   1.369       .  A
C425        C426   1.385       .  A
C426        C427   1.410       .  A
C426        N432   1.350       .  A
C427        C428   1.410       .  A
C427        H436   1.082       .  S
C428        C431   1.387       .  A
N429        C430   1.353       .  A
N429        H439   1.045       .  S
C430        C431   1.398       .  A
C431        H437   1.082       .  S
N432        C433   1.358       .  A
N432        H440   1.045       .  S
C433        C434   1.391       .  A
C434        H438   1.083       .  S
C441        C446   1.384       .  A
C441        C442   1.405   1_556  A
C441        N447   1.343       .  A
C442        C443   1.404       .  A
C442        H453   1.082       .  S
C443        C452   1.381       .  A
C443        C444   1.384       .  A
C444        C445   1.406       .  A
C444        N450   1.344       .  A
C445        C446   1.404   1_554  A
C445        H454   1.082       .  S
C446        C449   1.382       .  A
N447        C448   1.357       .  A
N447        H457   1.045       .  S
C448        C449   1.396       .  A
C449        H455   1.082       .  S
N450        C451   1.357       .  A
N450        H458   1.045       .  S
C451        C452   1.396       .  A
C452        H456   1.082       .  S
C459        C464   1.385       .  A
C459        C460   1.402   1_556  A
C459        N465   1.343       .  A
C460        C461   1.401       .  A
C460        H471   1.082   1_554  S
C461        C470   1.375       .  A
C461        C462   1.385       .  A
C462        C463   1.403       .  A
C462        N468   1.344       .  A
C463        C464   1.403   1_554  A
C463        H472   1.082       .  S
C464        C467   1.377       .  A
N465        C466   1.355       .  A
N465        H475   1.044       .  S
C466        C467   1.396       .  A
C467        H473   1.082       .  S
N468        C469   1.355       .  A
N468        H476   1.044       .  S
C469        C470   1.394       .  A
C470        H474   1.082       .  S
C477        C482   1.384       .  A
C477        C478   1.399       .  A
C477        N483   1.339   1_545  A
C478        C479   1.398       .  A
C478        H489   1.083   1_545  S
C479        C488   1.372       .  A
C479        C480   1.384       .  A
C480        C481   1.412       .  A
C480        N486   1.351       .  A
C481        C482   1.411       .  A
C481        H490   1.082       .  S
C482        C485   1.390       .  A
N483        C484   1.354       .  A
N483        H493   1.045       .  S
C484        C485   1.400   1_565  A
C485        H491   1.082       .  S
N486        C487   1.359       .  A
N486        H494   1.044       .  S
C487        C488   1.393       .  A
C488        H492   1.083       .  S
C495        C500   1.385       .  A
C495        C496   1.403       .  A
C495        N501   1.344       .  A
C496        C497   1.403       .  A
C496        H507   1.082       .  S
C497        C506   1.377       .  A
C497        C498   1.385       .  A
C498        C499   1.401       .  A
C498        N504   1.342       .  A
C499        C500   1.400       .  A
C499        H508   1.082       .  S
C500        C503   1.374       .  A
N501        C502   1.355       .  A
N501        H511   1.044       .  S
C502        C503   1.394       .  A
C503        H509   1.083       .  S
N504        C505   1.354       .  A
N504        H512   1.044       .  S
C505        C506   1.396       .  A
C506        H510   1.082       .  S
C513        C518   1.385       .  A
C513        C514   1.403       .  A
C513        N519   1.342       .  A
C514        C515   1.401       .  A
C514        H525   1.082       .  S
C515        C524   1.378       .  A
C515        C516   1.384       .  A
C516        C517   1.403       .  A
C516        N522   1.342       .  A
C517        C518   1.402       .  A
C517        H526   1.082       .  S
C518        C521   1.379       .  A
N519        C520   1.355       .  A
N519        H529   1.045       .  S
C520        C521   1.395       .  A
C521        H527   1.082       .  S
N522        C523   1.356       .  A
N522        H530   1.044       .  S
C523        C524   1.394       .  A
C524        H528   1.082       .  S
C531        C536   1.385       .  A
C531        C532   1.403       .  A
C531        N537   1.344       .  A
C532        C533   1.403       .  A
C532        H543   1.082       .  S
C533        C542   1.378       .  A
C533        C534   1.385       .  A
C534        C535   1.405       .  A
C534        N540   1.346       .  A
C535        C536   1.405       .  A
C535        H544   1.082       .  S
C536        C539   1.380       .  A
N537        C538   1.355       .  A
N537        H547   1.045       .  S
C538        C539   1.396       .  A
C539        H545   1.082       .  S
N540        C541   1.356       .  A
N540        H548   1.044       .  S
C541        C542   1.396       .  A
C542        H546   1.082       .  S
C549        C554   1.384       .  A
C549        C550   1.397       .  A
C549        N555   1.338       .  A
C550        C551   1.396       .  A
C550        H561   1.083       .  S
C551        C560   1.370       .  A
C551        C552   1.383       .  A
C552        C553   1.414       .  A
C552        N558   1.354       .  A
C553        C554   1.414       .  A
C553        H562   1.082       .  S
C554        C557   1.392       .  A
N555        C556   1.353       .  A
N555        H565   1.045       .  S
C556        C557   1.402       .  A
C557        H563   1.082       .  S
N558        C559   1.361       .  A
N558        H566   1.044       .  S
C559        C560   1.392       .  A
C560        H564   1.083       .  S
C567        C572   1.385       .  A
C567        C568   1.400       .  A
C567        N573   1.344       .  A
C568        C569   1.401       .  A
C568        H579   1.082       .  S
C569        C578   1.371       .  A
C569        C570   1.385       .  A
C570        C571   1.405       .  A
C570        N576   1.348       .  A
C571        C572   1.406       .  A
C571        H580   1.082       .  S
C572        C575   1.377       .  A
N573        C574   1.353       .  A
N573        H583   1.045       .  S
C574        C575   1.397       .  A
C575        H581   1.082       .  S
N576        C577   1.356       .  A
N576        H584   1.045       .  S
C577        C578   1.393       .  A
C578        H582   1.083       .  S
C585        C590   1.384       .  A
C585        C586   1.404   1_556  A
C585        N591   1.342       .  A
C586        C587   1.402       .  A
C586        H597   1.082       .  S
C587        C596   1.379       .  A
C587        C588   1.385       .  A
C588        C589   1.404       .  A
C588        N594   1.343       .  A
C589        C590   1.403   1_554  A
C589        H598   1.082       .  S
C590        C593   1.380       .  A
N591        C592   1.356       .  A
N591        H601   1.045       .  S
C592        C593   1.395       .  A
C593        H599   1.082       .  S
N594        C595   1.356       .  A
N594        H602   1.045       .  S
C595        C596   1.395       .  A
C596        H600   1.082       .  S
C603        C608   1.385       .  A
C603        C604   1.404       .  A
C603        N609   1.345       .  A
C604        C605   1.404       .  A
C604        H615   1.082       .  S
C605        C614   1.377       .  A
C605        C606   1.385       .  A
C606        C607   1.403       .  A
C606        N612   1.345       .  A
C607        C608   1.403       .  A
C607        H616   1.082       .  S
C608        C611   1.376       .  A
N609        C610   1.355       .  A
N609        H619   1.044       .  S
C610        C611   1.394       .  A
C611        H617   1.082       .  S
N612        C613   1.355       .  A
N612        H620   1.044       .  S
C613        C614   1.395       .  A
C614        H618   1.082       .  S
C621        C626   1.385       .  A
C621        C622   1.405       .  A
C621        N627   1.348       .  A
C622        C623   1.406       .  A
C622        H633   1.082       .  S
C623        C632   1.377       .  A
C623        C624   1.385       .  A
C624        C625   1.401       .  A
C624        N630   1.345       .  A
C625        C626   1.402       .  A
C625        H634   1.082       .  S
C626        C629   1.373       .  A
N627        C628   1.356       .  A
N627        H637   1.045       .  S
C628        C629   1.394       .  A
C629        H635   1.083       .  S
N630        C631   1.354       .  A
N630        H638   1.045       .  S
C631        C632   1.397       .  A
C632        H636   1.082       .  S
C639        C644   1.385       .  A
C639        C640   1.403   1_556  A
C639        N645   1.344       .  A
C640        C641   1.402       .  A
C640        H651   1.082   1_554  S
C641        C650   1.376       .  A
C641        C642   1.385       .  A
C642        C643   1.402       .  A
C642        N648   1.344       .  A
C643        C644   1.402   1_554  A
C643        H652   1.082       .  S
C644        C647   1.375       .  A
N645        C646   1.355       .  A
N645        H655   1.044       .  S
C646        C647   1.394       .  A
C647        H653   1.082       .  S
N648        C649   1.355       .  A
N648        H656   1.044       .  S
C649        C650   1.395       .  A
C650        H654   1.082       .  S
C657        C662   1.385       .  A
C657        C658   1.397       .  A
C657        N663   1.337       .  A
C658        C659   1.396       .  A
C658        H669   1.083       .  S
C659        C668   1.371   1_655  A
C659        C660   1.384       .  A
C660        C661   1.413       .  A
C660        N666   1.351   1_655  A
C661        C662   1.412       .  A
C661        H670   1.082       .  S
C662        C665   1.390       .  A
N663        C664   1.352       .  A
N663        H673   1.045       .  S
C664        C665   1.400       .  A
C665        H671   1.082       .  S
N666        C667   1.360       .  A
N666        H674   1.045       .  S
C667        C668   1.391       .  A
C668        H672   1.083       .  S
C675        C680   1.385       .  A
C675        C676   1.403       .  A
C675        N681   1.345       .  A
C676        C677   1.404       .  A
C676        H687   1.082       .  S
C677        C686   1.376       .  A
C677        C678   1.385       .  A
C678        C679   1.403       .  A
C678        N684   1.346       .  A
C679        C680   1.403       .  A
C679        H688   1.082       .  S
C680        C683   1.376       .  A
N681        C682   1.355       .  A
N681        H691   1.045       .  S
C682        C683   1.395       .  A
C683        H689   1.082       .  S
N684        C685   1.355       .  A
N684        H692   1.045       .  S
C685        C686   1.396       .  A
C686        H690   1.083       .  S
C693        C698   1.385       .  A
C693        C694   1.404       .  A
C693        N699   1.343       .  A
C694        C695   1.403       .  A
C694        H705   1.082       .  S
C695        C704   1.380       .  A
C695        C696   1.385       .  A
C696        C697   1.402       .  A
C696        N702   1.341       .  A
C697        C698   1.401       .  A
C697        H706   1.082       .  S
C698        C701   1.377       .  A
N699        C700   1.356       .  A
N699        H709   1.045       .  S
C700        C701   1.393       .  A
C701        H707   1.082       .  S
N702        C703   1.355       .  A
N702        H710   1.045       .  S
C703        C704   1.395       .  A
C704        H708   1.082       .  S
C711        C716   1.385       .  A
C711        C712   1.404       .  A
C711        N717   1.343       .  A
C712        C713   1.402       .  A
C712        H723   1.082       .  S
C713        C722   1.379       .  A
C713        C714   1.384       .  A
C714        C715   1.404       .  A
C714        N720   1.343       .  A
C715        C716   1.403       .  A
C715        H724   1.082       .  S
C716        C719   1.380       .  A
N717        C718   1.355       .  A
N717        H727   1.045       .  S
C718        C719   1.394       .  A
C719        H725   1.082       .  S
N720        C721   1.356       .  A
N720        H728   1.045       .  S
C721        C722   1.395       .  A
C722        H726   1.082       .  S
C729        C734   1.384       .  A
C729        C730   1.406       .  A
C729        N735   1.343       .  A
C730        C731   1.404       .  A
C730        H741   1.082       .  S
C731        C740   1.384       .  A
C731        C732   1.384       .  A
C732        C733   1.405       .  A
C732        N738   1.342       .  A
C733        C734   1.403       .  A
C733        H742   1.082       .  S
C734        C737   1.382       .  A
N735        C736   1.356       .  A
N735        H745   1.045       .  S
C736        C737   1.395       .  A
C737        H743   1.082       .  S
N738        C739   1.357       .  A
N738        H746   1.045       .  S
C739        C740   1.396       .  A
C740        H744   1.082       .  S
C747        C752   1.385       .  A
C747        C748   1.403       .  A
C747        N753   1.344       .  A
C748        C749   1.403       .  A
C748        H759   1.082       .  S
C749        C758   1.377       .  A
C749        C750   1.385       .  A
C750        C751   1.403       .  A
C750        N756   1.344       .  A
C751        C752   1.403       .  A
C751        H760   1.082       .  S
C752        C755   1.377       .  A
N753        C754   1.355       .  A
N753        H763   1.044       .  S
C754        C755   1.396       .  A
C755        H761   1.082       .  S
N756        C757   1.355       .  A
N756        H764   1.044       .  S
C757        C758   1.395       .  A
C758        H762   1.082       .  S
C765        C770   1.385       .  A
C765        C766   1.402       .  A
C765        N771   1.344       .  A
C766        C767   1.402       .  A
C766        H777   1.082       .  S
C767        C776   1.375       .  A
C767        C768   1.385       .  A
C768        C769   1.405       .  A
C768        N774   1.347       .  A
C769        C770   1.405       .  A
C769        H778   1.082       .  S
C770        C773   1.379       .  A
N771        C772   1.355       .  A
N771        H781   1.044       .  S
C772        C773   1.396       .  A
C773        H779   1.082       .  S
N774        C775   1.356       .  A
N774        H782   1.044       .  S
C775        C776   1.394       .  A
C776        H780   1.082       .  S
C783        C788   1.385       .  A
C783        C784   1.410       .  A
C783        N789   1.350       .  A
C784        C785   1.409       .  A
C784        H795   1.082       .  S
C785        C794   1.386   1_655  A
C785        C786   1.385       .  A
C786        C787   1.399       .  A
C786        N792   1.340   1_655  A
C787        C788   1.398       .  A
C787        H796   1.083       .  S
C788        C791   1.372   1_545  A
N789        C790   1.358   1_545  A
N789        H799   1.045       .  S
C790        C791   1.392       .  A
C791        H797   1.083       .  S
N792        C793   1.353       .  A
N792        H800   1.045       .  S
C793        C794   1.398       .  A
C794        H798   1.082       .  S
