geometry optimzed in LAMMPS
_audit_creation_date              2020-12-01 
_audit_creation_method            'lammps2cif' 
_symmetry_space_group_name_H-M    'P1' 
_symmetry_Int_Tables_number       1 
_symmetry_cell_setting            triclinic 
loop_ 
_symmetry_equiv_pos_as_xyz 
  x,y,z 
_cell_length_a                    51.87227325 
_cell_length_b                    51.95043926665939 
_cell_length_c                    31.895278245917687 
_cell_angle_alpha                 90.09673587183879 
_cell_angle_beta                  89.8960613656302 
_cell_angle_gamma                 120.1638142042671 
loop_ 
_atom_site_label 
_atom_site_type_symbol 
_atom_site_fract_x 
_atom_site_fract_y 
_atom_site_fract_z 
_atom_site_charge 
C1          C  0.25608107  0.49511426  0.71358679     0.80800
N2          N  0.28089550  0.49265230  0.71392911    -0.77500
C3          C  0.29239381  0.49005977  0.75087086     0.83300
N4          N  0.27927938  0.49048628  0.78756236    -0.77400
C5          C  0.25461741  0.49320241  0.78719746     0.83400
N6          N  0.24332595  0.49585758  0.75028756    -0.79100
C7          C  0.26435358  0.46475436  0.21271710     0.80800
N8          N  0.24234163  0.47165679  0.21259415    -0.77500
C9          C  0.23152072  0.47554123  0.24949293     0.83300
N10         N  0.24262273  0.47219718  0.28638459    -0.77400
C11         C  0.26461827  0.46528405  0.28628252     0.83400
N12         N  0.27478392  0.46083669  0.24951585    -0.79100
C13         C  0.24231749  0.22473445  0.28682866     0.80800
N14         N  0.22776683  0.21433677  0.25005207    -0.77500
C15         C  0.24237301  0.22450046  0.21322752     0.83300
N16         N  0.27138542  0.24645754  0.21309815    -0.77400
C17         C  0.28597090  0.25749409  0.24995461     0.83400
N18         N  0.27133628  0.24666660  0.28685167    -0.79100
C19         C  0.27769318  0.23488302  0.78620130     0.80800
N20         N  0.29136938  0.24701429  0.74933356    -0.77500
C21         C  0.27786484  0.23471326  0.71244660     0.83300
N22         N  0.25016036  0.21020018  0.71247650    -0.77400
C23         C  0.23583222  0.19864898  0.74937394     0.83400
N24         N  0.25002875  0.21042183  0.78617829    -0.79100
C25         C  0.00656054  0.25289727  0.74841661     0.80800
N26         N  0.00433717  0.23861526  0.71166543    -0.77500
C27         C  0.99897607  0.21019506  0.71205540     0.83300
N28         N  0.99533582  0.19602516  0.74904234    -0.77400
C29         C  0.99739683  0.21008949  0.78571520     0.83400
N30         N  0.00235458  0.23832603  0.78533408    -0.79100
C31         C  0.01503836  0.20411963  0.24920144     0.80800
N32         N  0.01879703  0.21861936  0.21220370    -0.77500
C33         C  0.02562744  0.24752153  0.21218809     0.83300
N34         N  0.02960918  0.26204904  0.24892249    -0.77400
C35         C  0.02526776  0.24759670  0.28574584     0.83400
N36         N  0.01839281  0.21872052  0.28598512    -0.79100
C37         C  0.03447150  0.47541777  0.25126245     0.80800
N38         N  0.00663346  0.45126299  0.25088659    -0.77500
C39         C  0.48249114  0.45487621  0.25062992     0.83300
N40         N  0.48618634  0.48265442  0.25067827    -0.77400
C41         C  0.01405099  0.00682276  0.25101310     0.83400
N42         N  0.03818900  0.00320068  0.25131210    -0.79100
C43         C  0.48514236  0.47997250  0.75215366     0.80800
N44         N  0.01279135  0.00453332  0.75287403    -0.77500
C45         C  0.03735212  0.00160326  0.75331646     0.83300
N46         N  0.03432729  0.47410715  0.75291108    -0.77400
C47         C  0.00674500  0.44957180  0.75225098     0.83400
N48         N  0.48221160  0.45250275  0.75181494    -0.79100
C49         C  0.44689534  0.07283691  0.12676428     0.03700
C50         C  0.45674312  0.09055603  0.09046223    -0.12400
C51         C  0.43829754  0.08302702  0.05490852     0.01200
C52         C  0.41004148  0.05722150  0.05595846    -0.10900
C53         C  0.40036830  0.03900422  0.09142659     0.03700
C54         C  0.41865878  0.04693731  0.12709291    -0.10400
H55         H  0.47867105  0.11035146  0.09019787     0.09300
H56         H  0.39570440  0.05064150  0.02864826     0.06800
H57         H  0.41128027  0.03269331  0.15450274     0.06700
Zn58       Zn  0.05525583  0.14915736  0.25103976     1.49700
Zn59       Zn  0.98338660  0.10855883  0.25051379     1.49400
Zn60       Zn  0.02426520  0.08886300  0.20020696     1.49100
Zn61       Zn  0.02424919  0.08896284  0.30143443     1.49500
O62         O  0.02157386  0.10878488  0.25080762    -1.83500
O63         O  0.04114622  0.17842754  0.25008162    -0.74200
O64         O  0.45940554  0.08863148  0.19760173    -0.74000
O65         O  0.06367857  0.11331064  0.16955345    -0.73500
O66         O  0.99148665  0.15132262  0.25000184    -0.74200
O67         O  0.08229510  0.15694403  0.20187494    -0.73800
O68         O  0.99143527  0.08162297  0.15957806    -0.74400
O69         O  0.01978284  0.04930191  0.28591291    -0.73700
O70         O  0.45906556  0.08849495  0.30324884    -0.74500
O71         O  0.01944987  0.04906524  0.21592902    -0.73900
O72         O  0.99094894  0.08129428  0.34118169    -0.74400
O73         O  0.06338815  0.11346326  0.33277774    -0.74300
O74         O  0.08187974  0.15715207  0.30080446    -0.74100
C75         C  0.01566777  0.17636157  0.24967059     0.77700
C76         C  0.46677553  0.08118525  0.16344218     0.78200
C77         C  0.08381937  0.14054130  0.17350644     0.77200
C78         C  0.01802921  0.03665859  0.25094509     0.77600
C79         C  0.46627079  0.08077993  0.33724415     0.78700
C80         C  0.08343002  0.14074566  0.32906968     0.77700
C81         C  0.44638608  0.07221675  0.37392226     0.03700
C82         C  0.45666402  0.08946214  0.41055060    -0.12400
C83         C  0.43872217  0.08129612  0.44645777     0.01200
C84         C  0.41058394  0.05565006  0.44611627    -0.10900
C85         C  0.40019433  0.03808001  0.40999662     0.03700
C86         C  0.41800118  0.04645119  0.37364562    -0.10400
H87         H  0.47853090  0.10935886  0.41100956     0.09300
H88         H  0.39685741  0.04920596  0.47413752     0.06800
H89         H  0.41019111  0.03262264  0.34583312     0.06700
C90         C  0.07324358  0.38410146  0.62476893     0.03700
C91         C  0.10121963  0.41035463  0.62413345    -0.12400
C92         C  0.11845193  0.41938194  0.58702446     0.01200
C93         C  0.10761048  0.40134079  0.55121928    -0.10900
C94         C  0.08014940  0.37489041  0.55207070     0.03700
C95         C  0.06285060  0.36641212  0.58858931    -0.10400
H96         H  0.10898203  0.42411000  0.65200606     0.09300
H97         H  0.12063971  0.40762358  0.52256503     0.06800
H98         H  0.04140406  0.34603984  0.58890445     0.06700
Zn99       Zn  0.03799231  0.34842407  0.74916255     1.49700
Zn100      Zn  0.49672729  0.36722277  0.80019104     1.49400
Zn101      Zn  0.49680122  0.36815231  0.70015252     1.49100
Zn102      Zn  0.46597704  0.30724716  0.74885114     1.49500
O103        O  0.49965245  0.34777062  0.74960903    -1.83500
O104        O  0.06222526  0.36867004  0.80217852    -0.74200
O105        O  0.50154856  0.40709150  0.78609008    -0.74000
O106        O  0.02905612  0.37502074  0.65879933    -0.73500
O107        O  0.02937834  0.37424354  0.84052667    -0.74200
O108        O  0.06167164  0.36841590  0.69588138    -0.73800
O109        O  0.50207647  0.40796120  0.71622337    -0.74400
O110        O  0.43945530  0.29953703  0.69906060    -0.73700
O111        O  0.45706732  0.34278250  0.82951605    -0.74500
O112        O  0.45691748  0.34444638  0.67106415    -0.73900
O113        O  0.43883188  0.29868398  0.79845838    -0.74400
O114        O  0.48020680  0.27824466  0.74812865    -0.74300
O115        O  0.02987125  0.30562858  0.74862848    -0.74100
C116        C  0.05443833  0.37555400  0.83650977     0.77700
C117        C  0.50337809  0.42003729  0.75148554     0.78200
C118        C  0.05384090  0.37565438  0.66200431     0.77200
C119        C  0.43742959  0.31691124  0.67303079     0.77600
C120        C  0.43715438  0.31548466  0.82600874     0.78700
C121        C  0.50575025  0.28051064  0.74813057     0.77700
C122        C  0.07408487  0.38424731  0.87346973     0.03700
C123        C  0.06363275  0.36686997  0.90995260    -0.12400
C124        C  0.08092587  0.37551789  0.94645793     0.01200
C125        C  0.10859936  0.40172727  0.94685174    -0.10900
C126        C  0.11928032  0.41932980  0.91085704     0.03700
C127        C  0.10211669  0.41052134  0.87389922    -0.10400
H128        H  0.04208383  0.34657397  0.90989434     0.09300
H129        H  0.12187026  0.40844654  0.97527087     0.06800
H130        H  0.11009784  0.42440423  0.84618079     0.06700
C131        C  0.35194568  0.41634482  0.62547996     0.03700
C132        C  0.35212864  0.38929720  0.62418358    -0.12400
C133        C  0.34398775  0.37193121  0.58721580     0.01200
C134        C  0.33594389  0.38207655  0.55157426    -0.10900
C135        C  0.33516868  0.40852238  0.55277535     0.03700
C136        C  0.34286734  0.42542710  0.58953416    -0.10400
H137        H  0.35888518  0.38196517  0.65166293     0.09300
H138        H  0.32969639  0.36916150  0.52285120     0.06800
H139        H  0.34224181  0.44596947  0.58964882     0.06700
Zn140      Zn  0.43277420  0.02370638  0.74948908     1.49700
Zn141      Zn  0.39055449  0.45192437  0.74989936     1.49400
Zn142      Zn  0.37178751  0.99340343  0.80042470     1.49100
Zn143      Zn  0.37170687  0.99389421  0.70106362     1.49500
O144        O  0.39177905  0.99049216  0.75032623    -1.83500
O145        O  0.46189205  0.00906746  0.75165123    -0.74200
O146        O  0.37099116  0.42794718  0.80351441    -0.74000
O147        O  0.39687870  0.03193606  0.83182828    -0.73500
O148        O  0.43287579  0.45970751  0.75013332    -0.74200
O149        O  0.44017268  0.05135383  0.79806338    -0.73800
O150        O  0.36295543  0.45997431  0.83930794    -0.74400
O151        O  0.33310977  0.99126317  0.71633610    -0.73700
O152        O  0.37070620  0.42843573  0.69609121    -0.74500
O153        O  0.33282610  0.99079748  0.78601570    -0.73900
O154        O  0.36237251  0.46057396  0.66126238    -0.74400
O155        O  0.39645237  0.03290973  0.67078207    -0.74300
O156        O  0.44143765  0.04954957  0.69828001    -0.74100
C157        C  0.45857514  0.98307263  0.75129363     0.77700
C158        C  0.36275749  0.43541592  0.83696275     0.78200
C159        C  0.42386471  0.05245899  0.82707943     0.77200
C160        C  0.32073667  0.99036774  0.75115137     0.77600
C161        C  0.36206251  0.43593202  0.66313781     0.78700
C162        C  0.42419413  0.05178889  0.67212940     0.77700
C163        C  0.35332962  0.41602168  0.87474586     0.03700
C164        C  0.34521804  0.42554172  0.91126279    -0.12400
C165        C  0.33789230  0.40881115  0.94805352     0.01200
C166        C  0.33807919  0.38207682  0.94882277    -0.10900
C167        C  0.34523371  0.37151463  0.91267001     0.03700
C168        C  0.35307341  0.38875191  0.87560916    -0.10400
H169        H  0.34480227  0.44619400  0.91147339     0.09300
H170        H  0.33190750  0.36920287  0.97754621     0.06800
H171        H  0.35908396  0.38107783  0.84767631     0.06700
C172        C  0.16782182  0.04307507  0.12675017     0.03700
C173        C  0.17557902  0.03298324  0.09063362    -0.12400
C174        C  0.18592848  0.05095554  0.05484531     0.01200
C175        C  0.18825536  0.07896052  0.05484230    -0.10900
C176        C  0.18023031  0.08914231  0.09040036     0.03700
C177        C  0.17017798  0.07126652  0.12659079    -0.10400
H178        H  0.17368619  0.01122180  0.09044429     0.09300
H179        H  0.19586585  0.09265469  0.02686775     0.06800
H180        H  0.16357124  0.07892005  0.15400352     0.06700
Zn181      Zn  0.13601420  0.43499099  0.24988016     1.49700
Zn182      Zn  0.10682673  0.46579614  0.30129139     1.49400
Zn183      Zn  0.16726235  0.50676641  0.25031801     1.49100
Zn184      Zn  0.10640897  0.46555247  0.19994491     1.49500
O185        O  0.12922931  0.46849629  0.25037892    -1.83500
O186        O  0.11714455  0.40813355  0.29926469    -0.74200
O187        O  0.13256340  0.49900134  0.34141207    -0.74000
O188        O  0.20212221  0.49889021  0.25012099    -0.73500
O189        O  0.09205587  0.42648900  0.33198562    -0.74200
O190        O  0.17955322  0.44931525  0.24947077    -0.73800
O191        O  0.17144738  0.03106720  0.30301382    -0.74400
O192        O  0.13199351  0.49868841  0.15975524    -0.73700
O193        O  0.07153411  0.47018544  0.28599895    -0.74500
O194        O  0.17131350  0.03069969  0.19749189    -0.73900
O195        O  0.07123795  0.46993062  0.21600203    -0.74400
O196        O  0.09146858  0.42628702  0.16877461    -0.74300
O197        O  0.11694972  0.40809149  0.20043566    -0.74100
C198        C  0.09918115  0.40645511  0.32774112     0.77700
C199        C  0.15668492  0.02379513  0.33724797     0.78200
C200        C  0.20302521  0.47480784  0.24965590     0.77200
C201        C  0.15630237  0.02335295  0.16352968     0.77600
C202        C  0.06040307  0.47156495  0.25109684     0.78700
C203        C  0.09879214  0.40636706  0.17233667     0.77700
C204        C  0.16823366  0.04381233  0.37382338     0.03700
C205        C  0.17097154  0.07215067  0.37333743    -0.12400
C206        C  0.18113259  0.09032795  0.40920709     0.01200
C207        C  0.18912478  0.08046000  0.44493623    -0.10900
C208        C  0.18636020  0.05217674  0.44601388     0.03700
C209        C  0.17557584  0.03382969  0.41036083    -0.10400
H210        H  0.16447493  0.07964715  0.34573308     0.09300
H211        H  0.19676246  0.09470738  0.47240724     0.06800
H212        H  0.17318486  0.01187622  0.41070400     0.06700
C213        C  0.34435446  0.17236324  0.57711076     0.80800
N214        N  0.31821867  0.14606702  0.57791422    -0.77500
C215        C  0.31816304  0.11991721  0.57851568     0.83300
N216        N  0.34444965  0.12012128  0.57875684    -0.77400
C217        C  0.37065420  0.14629506  0.57755772     0.83400
N218        N  0.37060791  0.17241911  0.57654122    -0.79100
Zn219      Zn  0.45216360  0.15293654  0.52941739     1.49700
Zn220      Zn  0.00972349  0.18244703  0.58803304     1.49400
Zn221      Zn  0.44443743  0.13851899  0.62689973     1.49100
Zn222      Zn  0.47579624  0.11169787  0.57100688     1.49500
O223        O  0.47067283  0.14643372  0.57876831    -1.83500
O224        O  0.47839612  0.19293956  0.50289352    -0.74200
O225        O  0.01025279  0.20183573  0.64322954    -0.74000
O226        O  0.40776411  0.14066800  0.61182044    -0.73500
O227        O  0.01899841  0.21335289  0.54275664    -0.74200
O228        O  0.41349001  0.15142222  0.54379114    -0.73800
O229        O  0.46665063  0.16887965  0.67150451    -0.74400
O230        O  0.45352865  0.07970347  0.61442984    -0.73700
O231        O  0.04260791  0.17197218  0.59020472    -0.74500
O232        O  0.43053999  0.09816097  0.65221093    -0.73900
O233        O  0.01878604  0.12311675  0.57808576    -0.74400
O234        O  0.46096377  0.09367939  0.51358333    -0.74300
O235        O  0.44389693  0.12174354  0.48607331    -0.74100
C236        C  0.00416555  0.21450892  0.51170306     0.77700
C237        C  0.49171348  0.19288361  0.67343504     0.78200
C238        C  0.39880711  0.14622044  0.57774529     0.77200
C239        C  0.43648889  0.07769421  0.64447857     0.77600
C240        C  0.04250561  0.14749658  0.58615238     0.78700
C241        C  0.44864395  0.10001562  0.48394087     0.77700
Zn242      Zn  0.04523793  0.34484495  0.42679153     1.49700
Zn243      Zn  0.01205307  0.27382981  0.40917905     1.49400
Zn244      Zn  0.07732323  0.31888428  0.37200693     1.49100
Zn245      Zn  0.06831427  0.30363542  0.46947284     1.49500
O246        O  0.05054542  0.31023198  0.41947753    -1.83500
O247        O  0.00224775  0.33271862  0.41828957    -0.74200
O248        O  0.01292617  0.25506933  0.35419885    -0.74000
O249        O  0.09105423  0.35913015  0.34693206    -0.73500
O250        O  0.47884199  0.28381192  0.40622508    -0.74200
O251        O  0.06868134  0.37799354  0.38497517    -0.73800
O252        O  0.05653364  0.28886800  0.32690472    -0.74400
O253        O  0.10735469  0.30613841  0.45607605    -0.73700
O254        O  0.00239585  0.24256032  0.45413867    -0.74500
O255        O  0.11390663  0.31740097  0.38817378    -0.73900
O256        O  0.04245770  0.26325201  0.49498243    -0.74400
O257        O  0.07537870  0.33423843  0.51327215    -0.74300
O258        O  0.05864186  0.36223648  0.48465081    -0.74100
C259        C  0.47870304  0.30818519  0.41014263     0.77700
C260        C  0.03186855  0.26452999  0.32450021     0.78200
C261        C  0.08577037  0.38001998  0.35494452     0.77200
C262        C  0.12249228  0.31183247  0.42251777     0.77600
C263        C  0.01698060  0.24146757  0.48555009     0.78700
C264        C  0.07044472  0.35586081  0.51490369     0.77700
Zn265      Zn  0.25821306  0.02447546  0.58619827     1.49700
Zn266      Zn  0.19445624  0.00219781  0.62987306     1.49400
Zn267      Zn  0.22244473  0.05898037  0.57130971     1.49100
Zn268      Zn  0.19901681  0.49356995  0.53130612     1.49500
O269        O  0.21848469  0.01978004  0.57942290    -1.83500
O270        O  0.26202962  0.00952928  0.64252936    -0.74200
O271        O  0.17933876  0.02771325  0.65468032    -0.74000
O272        O  0.26551745  0.09169344  0.57421558    -0.73500
O273        O  0.21898167  0.49719980  0.67396634    -0.74200
O274        O  0.29028568  0.06747199  0.58299044    -0.73800
O275        O  0.19984497  0.06831945  0.61498200    -0.74400
O276        O  0.19004462  0.01563278  0.48669046    -0.73700
O277        O  0.15829354  0.46252582  0.61851172    -0.74500
O278        O  0.20682982  0.06056401  0.51450524    -0.73900
O279        O  0.16032461  0.45718276  0.54969581    -0.74400
O280        O  0.22577476  0.47985074  0.50433452    -0.74300
O281        O  0.26748003  0.00277242  0.54185497    -0.74100
C282        C  0.24500191  0.50050210  0.67444653     0.77700
C283        C  0.18367004  0.05341786  0.64583882     0.78200
C284        C  0.28984537  0.09157318  0.57862692     0.77200
C285        C  0.19476300  0.04216578  0.48441442     0.77600
C286        C  0.14725032  0.44778845  0.58499460     0.78700
C287        C  0.25237884  0.48588363  0.51176374     0.77700
Zn288      Zn  0.27639339  0.42121675  0.46977756     1.49700
Zn289      Zn  0.28298597  0.41247548  0.37190516     1.49400
Zn290      Zn  0.30390575  0.47757860  0.40977120     1.49100
Zn291      Zn  0.34075695  0.44330958  0.42724656     1.49500
O292        O  0.30111633  0.43882650  0.41979886    -1.83500
O293        O  0.24019180  0.38195142  0.45616617    -0.74200
O294        O  0.27381146  0.43357560  0.32734919    -0.74000
O295        O  0.28253725  0.48764915  0.45477317    -0.73500
O296        O  0.24491148  0.37581648  0.38805438    -0.74200
O297        O  0.26143169  0.44702037  0.49449805    -0.73800
O298        O  0.28462198  0.47736085  0.35471719    -0.74400
O299        O  0.37229844  0.48627183  0.42014254    -0.73700
O300        O  0.30936029  0.39865466  0.34621155    -0.74500
O301        O  0.34743317  0.01016156  0.40742180    -0.73900
O302        O  0.35037881  0.42012261  0.38485399    -0.74400
O303        O  0.34390036  0.42893400  0.48469394    -0.74300
O304        O  0.29967345  0.41430806  0.51430209    -0.74100
C305        C  0.23084621  0.36693199  0.42251498     0.77700
C306        C  0.27468637  0.45843414  0.32503921     0.78200
C307        C  0.26603673  0.47281310  0.48547841     0.77200
C308        C  0.37176208  0.00998058  0.41202910     0.77600
C309        C  0.33538749  0.40346581  0.35444542     0.78700
C310        C  0.32586982  0.41806069  0.51542768     0.77700
C311        C  0.17720580  0.28644446  0.42422644     0.80800
N312        N  0.15087266  0.28608650  0.42392015    -0.77500
C313        C  0.15064935  0.31208815  0.42341579     0.83300
N314        N  0.17668980  0.33838368  0.42303285    -0.77400
C315        C  0.20297494  0.33870708  0.42336520     0.83400
N316        N  0.20326324  0.31275669  0.42384258    -0.79100
Zn317      Zn  0.33639484  0.29109944  0.53179153     1.49700
Zn318      Zn  0.34950910  0.29533862  0.63035793     1.49400
Zn319      Zn  0.30804249  0.23167952  0.58652248     1.49100
Zn320      Zn  0.37828727  0.26763596  0.57038844     1.49500
O321        O  0.34303087  0.27149234  0.57966432    -1.83500
O322        O  0.33926255  0.32981176  0.55026613    -0.74200
O323        O  0.31832058  0.27128007  0.67348088    -0.74000
O324        O  0.27747631  0.22241934  0.54176573    -0.73500
O325        O  0.34770286  0.33242702  0.61879353    -0.74200
O326        O  0.29562737  0.26459739  0.50559857    -0.73800
O327        O  0.28803638  0.22804683  0.64222307    -0.74400
O328        O  0.36837292  0.22487750  0.57225313    -0.73700
O329        O  0.38984322  0.30877716  0.65580998    -0.74500
O330        O  0.31945547  0.19985795  0.58333846    -0.73900
O331        O  0.41021634  0.28967640  0.61377492    -0.74400
O332        O  0.39550128  0.28348018  0.51384247    -0.74300
O333        O  0.36712859  0.29994788  0.48638427    -0.74100
C334        C  0.34369684  0.34325816  0.58535538     0.77700
C335        C  0.29528018  0.24538974  0.67371981     0.78200
C336        C  0.27534126  0.23777014  0.51247094     0.77200
C337        C  0.34406626  0.20049645  0.57752456     0.77600
C338        C  0.41132457  0.30479290  0.64580159     0.78700
C339        C  0.38903214  0.29536310  0.48383956     0.77700
Zn340      Zn  0.21577399  0.18622572  0.41070419     1.49700
Zn341      Zn  0.18631736  0.21324016  0.47104169     1.49400
Zn342      Zn  0.17122274  0.20648722  0.37337668     1.49100
Zn343      Zn  0.14471926  0.14853373  0.42877299     1.49500
O344        O  0.17954197  0.18851140  0.42116541    -1.83500
O345        O  0.24706377  0.20770616  0.45558564    -0.74200
O346        O  0.18308825  0.24933644  0.45746636    -0.74000
O347        O  0.20121182  0.21540665  0.32812233    -0.73500
O348        O  0.22723279  0.22843794  0.49554836    -0.74200
O349        O  0.23473099  0.20552810  0.35562007    -0.73800
O350        O  0.17259639  0.24453094  0.38929536    -0.74400
O351        O  0.11147418  0.13882310  0.38691112    -0.73700
O352        O  0.15602400  0.18965343  0.51560048    -0.74500
O353        O  0.13096680  0.17983620  0.34833340    -0.73900
O354        O  0.12770568  0.14476234  0.48707069    -0.74400
O355        O  0.15653497  0.11747153  0.41996087    -0.74300
O356        O  0.20549210  0.14303027  0.40776954    -0.74100
C357        C  0.24857796  0.22406126  0.48634488     0.77700
C358        C  0.17756981  0.25861583  0.42369503     0.78200
C359        C  0.22539960  0.21486061  0.32573678     0.77200
C360        C  0.10977932  0.15376745  0.35654231     0.77600
C361        C  0.13431540  0.16301466  0.51741562     0.78700
C362        C  0.18103772  0.11847490  0.41168014     0.77700
C363        C  0.10411629  0.13496533  0.62622711     0.03700
C364        C  0.12251640  0.14318655  0.59053175    -0.12400
C365        C  0.11519829  0.15371654  0.55464680     0.01200
C366        C  0.08935499  0.15577448  0.55414808    -0.10900
C367        C  0.07065378  0.14733437  0.58918021     0.03700
C368        C  0.07809626  0.13705778  0.62544398    -0.10400
H369        H  0.14255664  0.14156251  0.59077349     0.09300
H370        H  0.08355767  0.16358739  0.52616000     0.06800
H371        H  0.06346239  0.13019905  0.65250906     0.06700
Zn372      Zn  0.11954160  0.07498362  0.80224414     1.49700
Zn373      Zn  0.13987671  0.13518509  0.75034627     1.49400
Zn374      Zn  0.17984884  0.10358937  0.75079842     1.49100
Zn375      Zn  0.11915756  0.07369406  0.70140426     1.49500
O376        O  0.13948231  0.09701729  0.75122521    -1.83500
O377        O  0.11283798  0.10122862  0.84173396    -0.74200
O378        O  0.18302940  0.16943279  0.74905444    -0.74000
O379        O  0.18710281  0.08420982  0.80010036    -0.73500
O380        O  0.12068187  0.14043856  0.80359584    -0.74200
O381        O  0.14375263  0.06040260  0.83365163    -0.73800
O382        O  0.20981166  0.14675005  0.75099218    -0.74400
O383        O  0.14338198  0.05833210  0.67132681    -0.73700
O384        O  0.11990953  0.13885563  0.69717540    -0.74500
O385        O  0.18798792  0.08553442  0.70054375    -0.73900
O386        O  0.11196683  0.09904976  0.66024631    -0.74400
O387        O  0.07944684  0.03860763  0.71780310    -0.74300
O388        O  0.07955451  0.03951335  0.78774354    -0.74100
C389        C  0.11302836  0.12569902  0.83782712     0.77700
C390        C  0.20799757  0.17020601  0.74970188     0.78200
C391        C  0.17076941  0.06694909  0.82916938     0.77200
C392        C  0.17099502  0.06665861  0.67354356     0.77600
C393        C  0.11205697  0.12355585  0.66341184     0.78700
C394        C  0.06699567  0.02797825  0.75297229     0.77700
C395        C  0.10510202  0.13731721  0.87480385     0.03700
C396        C  0.07903218  0.13924475  0.87559679    -0.12400
C397        C  0.07014579  0.14743108  0.91283078     0.01200
C398        C  0.08808735  0.15431879  0.94863873    -0.10900
C399        C  0.11434404  0.15306582  0.94765891     0.03700
C400        C  0.12273713  0.14436152  0.91098477    -0.10400
H401        H  0.06524629  0.13333721  0.84775879     0.09300
H402        H  0.08188581  0.16100827  0.97738405     0.06800
H403        H  0.14294147  0.14304211  0.91060723     0.06700
C404        C  0.34298618  0.17122531  0.91894107     0.80800
N405        N  0.36933396  0.17155833  0.91987234    -0.77500
C406        C  0.36975326  0.14564327  0.92155446     0.83300
N407        N  0.34365040  0.11932439  0.92285824    -0.77400
C408        C  0.31731660  0.11893193  0.92162627     0.83400
N409        N  0.31699419  0.14482602  0.91933926    -0.79100
Zn410      Zn  0.48777303  0.14095632  0.87012096     1.49700
Zn411      Zn  0.49644275  0.15441702  0.96853337     1.49400
Zn412      Zn  0.46549722  0.18222407  0.91252325     1.49100
Zn413      Zn  0.43111635  0.11178597  0.92934368     1.49500
O414        O  0.47019398  0.14735371  0.92043305    -1.83500
O415        O  0.02702241  0.14396693  0.88161231    -0.74200
O416        O  0.01003897  0.19499729  0.99455658    -0.74000
O417        O  0.48123794  0.20127316  0.85623049    -0.73500
O418        O  0.03281924  0.15220141  0.95020550    -0.74200
O419        O  0.49379777  0.17055139  0.82582468    -0.73800
O420        O  0.48706418  0.21338570  0.95659370    -0.74400
O421        O  0.39833047  0.12184119  0.92675286    -0.73700
O422        O  0.47467768  0.12363944  0.01396485    -0.74500
O423        O  0.42226858  0.17073006  0.91577019    -0.73900
O424        O  0.42975333  0.09491209  0.98639033    -0.74400
O425        O  0.42174779  0.07953090  0.88598354    -0.74300
O426        O  0.46195272  0.10060725  0.84538127    -0.74100
C427        C  0.04192177  0.14802418  0.91498888     0.77700
C428        C  0.00395800  0.21541149  0.98673545     0.78200
C429        C  0.49081914  0.19337834  0.82484532     0.77200
C430        C  0.39826259  0.14609073  0.92143217     0.77600
C431        C  0.44818991  0.10155240  0.01645984     0.78700
C432        C  0.43649348  0.07872006  0.85453519     0.77700
Zn433      Zn  0.01223531  0.27438703  0.08937796     1.49700
Zn434      Zn  0.06853459  0.30414587  0.02872009     1.49400
Zn435      Zn  0.04542011  0.34544484  0.07192129     1.49100
Zn436      Zn  0.07768535  0.31923749  0.12610965     1.49500
O437        O  0.05078317  0.31078707  0.07891804    -1.83500
O438        O  0.00235867  0.24323755  0.04430757    -0.74200
O439        O  0.07566111  0.33479156  0.98521140    -0.74000
O440        O  0.00218304  0.33311363  0.07983917    -0.73500
O441        O  0.04242170  0.26377693  0.00320789    -0.74200
O442        O  0.47900622  0.28430137  0.09246993    -0.73800
O443        O  0.05946096  0.36323211  0.01415439    -0.74400
O444        O  0.09103490  0.35929063  0.15201575    -0.73700
O445        O  0.10766095  0.30650033  0.04152294    -0.74500
O446        O  0.06846514  0.37820827  0.11469802    -0.73900
O447        O  0.11446536  0.31811007  0.10930136    -0.74400
O448        O  0.05703611  0.28868857  0.17081436    -0.74300
O449        O  0.01308284  0.25531010  0.14405791    -0.74100
C450        C  0.01691026  0.24215437  0.01283835     0.77700
C451        C  0.07111159  0.35665627  0.98376765     0.78200
C452        C  0.47869277  0.30854673  0.08816138     0.77200
C453        C  0.08553165  0.38010571  0.14463332     0.77600
C454        C  0.12295250  0.31236408  0.07491409     0.78700
C455        C  0.03226346  0.26444871  0.17338559     0.77700
Zn456      Zn  0.24364149  0.03721314  0.97067090     1.49700
Zn457      Zn  0.21547381  0.48032129  0.91097875     1.49400
Zn458      Zn  0.17846802  0.01420587  0.92985274     1.49100
Zn459      Zn  0.23600667  0.04512471  0.87355993     1.49500
O460        O  0.21821599  0.01898519  0.92153374    -1.83500
O461        O  0.25757575  0.01086103  0.99610081    -0.74200
O462        O  0.17201671  0.44763632  0.90847153    -0.74000
O463        O  0.17576561  0.02863660  0.98778229    -0.73500
O464        O  0.23718277  0.47055669  0.95565052    -0.74200
O465        O  0.22111832  0.04555021  0.01490542    -0.73800
O466        O  0.14689315  0.47111998  0.92240893    -0.74400
O467        O  0.20959910  0.05854524  0.84854280    -0.73700
O468        O  0.23442445  0.48051258  0.85554069    -0.74500
O469        O  0.16866238  0.03732009  0.88751390    -0.73900
O470        O  0.24454732  0.02409504  0.82847709    -0.70200
O471        O  0.27430954  0.08185706  0.88833036    -0.74300
O472        O  0.28062158  0.07583779  0.95581758    -0.74100
C473        C  0.25330050  0.48518473  0.98681054     0.77700
C474        C  0.14758833  0.44757939  0.91344210     0.78200
C475        C  0.19460615  0.04087234  0.01734187     0.77200
C476        C  0.18360370  0.05372243  0.85684248     0.77600
C477        C  0.24385899  0.49937250  0.82583279     0.78700
C478        C  0.28933157  0.09071409  0.92197793     0.77700
Zn479      Zn  0.28338497  0.41203422  0.12717184     1.49700
Zn480      Zn  0.34218526  0.44394959  0.07326051     1.49400
Zn481      Zn  0.27800497  0.42093690  0.02930018     1.49100
Zn482      Zn  0.30431747  0.47713052  0.08962125     1.49500
O483        O  0.30209942  0.43866030  0.07972779    -1.83500
O484        O  0.30965933  0.39822478  0.15298336    -0.74200
O485        O  0.34632144  0.42984923  0.01588425    -0.74000
O486        O  0.24129893  0.38175461  0.04222215    -0.73500
O487        O  0.35140764  0.42075840  0.11578247    -0.74200
O488        O  0.24532145  0.37541883  0.11038171    -0.73800
O489        O  0.30189798  0.41385390  0.98617109    -0.74400
O490        O  0.28297393  0.48669188  0.04436925    -0.73700
O491        O  0.37332458  0.48706277  0.08142693    -0.74500
O492        O  0.26360294  0.44678789  0.00324489    -0.73900
O493        O  0.34759241  0.01027744  0.09251549    -0.74400
O494        O  0.28449902  0.47666863  0.14433844    -0.74300
O495        O  0.27383059  0.43300409  0.17181024    -0.74100
C496        C  0.33598592  0.40357519  0.14549237     0.77700
C497        C  0.32833698  0.41827068  0.98525915     0.78200
C498        C  0.23150553  0.36667702  0.07573930     0.77200
C499        C  0.26737212  0.47223308  0.01277720     0.77600
C500        C  0.37222998  0.01056386  0.08901948     0.78700
C501        C  0.27450941  0.45778597  0.17401335     0.77700
C502        C  0.17718973  0.28625906  0.07518479     0.80800
N503        N  0.20338675  0.31245136  0.07527118    -0.77500
C504        C  0.20341400  0.33856594  0.07458096     0.83300
N505        N  0.17724801  0.33851999  0.07409632    -0.77400
C506        C  0.15103660  0.31235011  0.07396522     0.83400
N507        N  0.15099092  0.28619505  0.07462805    -0.79100
Zn508      Zn  0.37734781  0.26624917  0.92836899     1.49700
Zn509      Zn  0.33559329  0.28972872  0.96726147     1.49400
Zn510      Zn  0.34931478  0.29432071  0.86859290     1.49100
Zn511      Zn  0.30693005  0.23071811  0.91181616     1.49500
O512        O  0.34224602  0.27026953  0.91913639    -1.83500
O513        O  0.39434979  0.28160754  0.98539623    -0.74200
O514        O  0.33904000  0.32866289  0.94894306    -0.74000
O515        O  0.38940494  0.30706151  0.84285530    -0.73500
O516        O  0.36619947  0.29846286  0.01270273    -0.74200
O517        O  0.40975143  0.28837121  0.88538761    -0.73800
O518        O  0.34834674  0.33177261  0.88057551    -0.74400
O519        O  0.28718961  0.22794750  0.85639478    -0.73700
O520        O  0.29482321  0.26329323  0.99361733    -0.74500
O521        O  0.31826334  0.27097258  0.82529947    -0.73900
O522        O  0.27645206  0.22115325  0.95719332    -0.74400
O523        O  0.31802118  0.19866528  0.91321905    -0.74300
O524        O  0.36687230  0.22350377  0.92500523    -0.74100
C525        C  0.38797778  0.29370756  0.01535302     0.77700
C526        C  0.34419318  0.34248560  0.91409874     0.78200
C527        C  0.41088905  0.30319404  0.85307356     0.77200
C528        C  0.29491064  0.24534560  0.82496682     0.77600
C529        C  0.27449535  0.23646676  0.98682570     0.78700
C530        C  0.34260439  0.19925003  0.91884403     0.77700
Zn531      Zn  0.14423810  0.14787632  0.07285150     1.49700
Zn532      Zn  0.17116447  0.20645326  0.12739124     1.49400
Zn533      Zn  0.21532939  0.18523816  0.08954614     1.49100
Zn534      Zn  0.18589999  0.21235977  0.02992079     1.49500
O535        O  0.17921068  0.18786369  0.07986372    -1.83500
O536        O  0.11166041  0.13838144  0.11561041    -0.74200
O537        O  0.20156338  0.21569091  0.17194463    -0.74000
O538        O  0.20483049  0.14189260  0.09183258    -0.73500
O539        O  0.13112296  0.17980992  0.15342315    -0.74200
O540        O  0.15581510  0.11653600  0.08034076    -0.73800
O541        O  0.23434202  0.20449223  0.14475689    -0.74400
O542        O  0.22652012  0.22721528  0.00461708    -0.73700
O543        O  0.17236353  0.24449281  0.11106201    -0.74500
O544        O  0.24653406  0.20662552  0.04422820    -0.73900
O545        O  0.18279003  0.24861765  0.04289304    -0.74400
O546        O  0.15549396  0.18860460  0.98608214    -0.74300
O547        O  0.12647724  0.14414074  0.01533579    -0.74100
C548        C  0.11006261  0.15353869  0.14582174     0.77700
C549        C  0.22542497  0.21453511  0.17440106     0.78200
C550        C  0.18031168  0.11739060  0.08793131     0.77200
C551        C  0.24787731  0.22281347  0.01340194     0.77600
C552        C  0.17731821  0.25826975  0.07641203     0.78700
C553        C  0.13336138  0.16221349  0.98478732     0.77700
C554        C  0.41712651  0.32151115  0.37300723     0.03700
C555        C  0.39990965  0.31447439  0.40974968    -0.12400
C556        C  0.40736627  0.30358464  0.44525123     0.01200
C557        C  0.43267916  0.30041489  0.44382046    -0.10900
C558        C  0.45040645  0.30805835  0.40785760     0.03700
C559        C  0.44248267  0.31832365  0.37214243    -0.10400
H560        H  0.38048664  0.31714465  0.41035554     0.09300
H561        H  0.43926132  0.29275000  0.47119650     0.06800
H562        H  0.45642047  0.32461923  0.34435966     0.06700
Zn563      Zn  0.40059847  0.38259066  0.19930971     1.49700
Zn564      Zn  0.40021615  0.38243763  0.30066802     1.49400
Zn565      Zn  0.34020002  0.35283511  0.24983291     1.49100
Zn566      Zn  0.38138734  0.32230685  0.24962143     1.49500
O567        O  0.38069966  0.35995064  0.24985233    -1.83500
O568        O  0.44033345  0.41783451  0.21523504    -0.74200
O569        O  0.37558756  0.39714766  0.33130867    -0.74000
O570        O  0.33216390  0.37159840  0.20048567    -0.73500
O571        O  0.43993390  0.41781697  0.28524335    -0.74200
O572        O  0.37615197  0.39753328  0.16911974    -0.73800
O573        O  0.33195584  0.37177835  0.29903410    -0.74400
O574        O  0.33876821  0.28727307  0.24990293    -0.73700
O575        O  0.40763846  0.35683929  0.34080729    -0.74500
O576        O  0.31130051  0.30929906  0.24983505    -0.73900
O577        O  0.40168638  0.31847269  0.30210143    -0.74400
O578        O  0.40117695  0.31824819  0.19658963    -0.74300
O579        O  0.40784437  0.35702263  0.15845599    -0.74100
C580        C  0.45263271  0.42886852  0.25034560     0.77700
C581        C  0.34834357  0.38994810  0.32723916     0.78200
C582        C  0.34879817  0.39005956  0.17274018     0.77200
C583        C  0.31361313  0.28607129  0.24988761     0.77600
C584        C  0.40871774  0.33301443  0.33648586     0.78700
C585        C  0.40843588  0.33291945  0.16235281     0.77700
C586        C  0.41672446  0.32130484  0.12566808     0.03700
C587        C  0.39907258  0.31345574  0.08930205    -0.12400
C588        C  0.40645768  0.30231088  0.05383695     0.01200
C589        C  0.43208710  0.29965959  0.05499894    -0.10900
C590        C  0.45025197  0.30817350  0.09053892     0.03700
C591        C  0.44241357  0.31869787  0.12614869    -0.10400
H592        H  0.37942629  0.31574848  0.08893665     0.09300
H593        H  0.43859810  0.29179174  0.02768768     0.06800
H594        H  0.45662627  0.32555233  0.15362559     0.06700
C595        C  0.25608106  0.99511425  0.71358678     0.80800
N596        N  0.28089552  0.99265233  0.71392911    -0.77500
C597        C  0.29239379  0.99005973  0.75087086     0.83300
N598        N  0.27927932  0.99048618  0.78756236    -0.77400
C599        C  0.25461742  0.99320245  0.78719745     0.83400
N600        N  0.24332598  0.99585763  0.75028754    -0.79100
C601        C  0.26435355  0.96475433  0.21271704     0.80800
N602        N  0.24234162  0.97165682  0.21259414    -0.77500
C603        C  0.23152075  0.97554127  0.24949292     0.83300
N604        N  0.24262281  0.97219727  0.28638457    -0.77400
C605        C  0.26461837  0.96528413  0.28628243     0.83400
N606        N  0.27478396  0.96083675  0.24951578    -0.79100
C607        C  0.24231748  0.72473447  0.28682866     0.80800
N608        N  0.22776683  0.71433677  0.25005207    -0.77500
C609        C  0.24237299  0.72450041  0.21322753     0.83300
N610        N  0.27138542  0.74645754  0.21309813    -0.77400
C611        C  0.28597087  0.75749408  0.24995461     0.83400
N612        N  0.27133627  0.74666662  0.28685166    -0.79100
C613        C  0.27769321  0.73488300  0.78620130     0.80800
N614        N  0.29136944  0.74701435  0.74933355    -0.77500
C615        C  0.27786482  0.73471328  0.71244658     0.83300
N616        N  0.25016043  0.71020024  0.71247650    -0.77400
C617        C  0.23583227  0.69864895  0.74937395     0.83400
N618        N  0.25002884  0.71042186  0.78617829    -0.79100
C619        C  0.00656053  0.75289729  0.74841661     0.80800
N620        N  0.00433715  0.73861525  0.71166544    -0.77500
C621        C  0.99897601  0.71019506  0.71205542     0.83300
N622        N  0.99533583  0.69602515  0.74904236    -0.77400
C623        C  0.99739687  0.71008953  0.78571523     0.83400
N624        N  0.00235451  0.73832600  0.78533408    -0.79100
C625        C  0.01503828  0.70411953  0.24920142     0.80800
N626        N  0.01879707  0.71861934  0.21220368    -0.77500
C627        C  0.02562747  0.74752148  0.21218809     0.83300
N628        N  0.02960918  0.76204898  0.24892251    -0.77400
C629        C  0.02526777  0.74759661  0.28574586     0.83400
N630        N  0.01839279  0.71872045  0.28598512    -0.79100
C631        C  0.03447152  0.97541779  0.25126244     0.80800
N632        N  0.00663348  0.95126301  0.25088660    -0.77500
C633        C  0.48249109  0.95487622  0.25062994     0.83300
N634        N  0.48618635  0.98265443  0.25067827    -0.77400
C635        C  0.01405103  0.50682279  0.25101313     0.83400
N636        N  0.03818902  0.50320069  0.25131210    -0.79100
C637        C  0.48514238  0.97997255  0.75215366     0.80800
N638        N  0.01279141  0.50453332  0.75287402    -0.77500
C639        C  0.03735216  0.50160321  0.75331642     0.83300
N640        N  0.03432732  0.97410722  0.75291109    -0.77400
C641        C  0.00674504  0.94957184  0.75225101     0.83400
N642        N  0.48221160  0.95250278  0.75181496    -0.79100
C643        C  0.44689534  0.57283697  0.12676429     0.03700
C644        C  0.45674303  0.59055607  0.09046226    -0.12400
C645        C  0.43829750  0.58302706  0.05490853     0.01200
C646        C  0.41004152  0.55722153  0.05595848    -0.10900
C647        C  0.40036832  0.53900424  0.09142656     0.03700
C648        C  0.41865876  0.54693739  0.12709295    -0.10400
H649        H  0.47867124  0.61035179  0.09019787     0.09300
H650        H  0.39570430  0.55064142  0.02864793     0.06800
H651        H  0.41128022  0.53269342  0.15450278     0.06700
Zn652      Zn  0.05525588  0.64915743  0.25103976     1.49700
Zn653      Zn  0.98338659  0.60855873  0.25051381     1.49400
Zn654      Zn  0.02426517  0.58886309  0.20020695     1.49100
Zn655      Zn  0.02424912  0.58896291  0.30143445     1.49500
O656        O  0.02157387  0.60878488  0.25080762    -1.83500
O657        O  0.04114619  0.67842756  0.25008163    -0.74200
O658        O  0.45940555  0.58863151  0.19760170    -0.74000
O659        O  0.06367861  0.61331071  0.16955350    -0.73500
O660        O  0.99148661  0.65132252  0.25000184    -0.74200
O661        O  0.08229509  0.65694414  0.20187487    -0.73800
O662        O  0.99143532  0.58162302  0.15957808    -0.74400
O663        O  0.01978276  0.54930197  0.28591290    -0.73700
O664        O  0.45906553  0.58849484  0.30324883    -0.74500
O665        O  0.01944996  0.54906533  0.21592901    -0.73900
O666        O  0.99094883  0.58129421  0.34118166    -0.74400
O667        O  0.06338816  0.61346327  0.33277776    -0.74300
O668        O  0.08187981  0.65715207  0.30080444    -0.74100
C669        C  0.01566770  0.67636152  0.24967057     0.77700
C670        C  0.46677554  0.58118528  0.16344217     0.78200
C671        C  0.08381939  0.64054137  0.17350644     0.77200
C672        C  0.01802926  0.53665866  0.25094509     0.77600
C673        C  0.46627077  0.58077986  0.33724416     0.78700
C674        C  0.08343008  0.64074569  0.32906965     0.77700
C675        C  0.44638606  0.57221675  0.37392222     0.03700
C676        C  0.45666404  0.58946210  0.41055063    -0.12400
C677        C  0.43872220  0.58129605  0.44645781     0.01200
C678        C  0.41058395  0.55564998  0.44611634    -0.10900
C679        C  0.40019437  0.53807993  0.40999663     0.03700
C680        C  0.41800120  0.54645122  0.37364568    -0.10400
H681        H  0.47853094  0.60935877  0.41100961     0.09300
H682        H  0.39685746  0.54920590  0.47413738     0.06800
H683        H  0.41019103  0.53262246  0.34583268     0.06700
C684        C  0.07324354  0.88410144  0.62476893     0.03700
C685        C  0.10121965  0.91035466  0.62413355    -0.12400
C686        C  0.11845192  0.91938192  0.58702447     0.01200
C687        C  0.10761053  0.90134080  0.55121927    -0.10900
C688        C  0.08014942  0.87489038  0.55207072     0.03700
C689        C  0.06285061  0.86641220  0.58858927    -0.10400
H690        H  0.10898192  0.92410977  0.65200564     0.09300
H691        H  0.12063965  0.90762352  0.52256527     0.06800
H692        H  0.04140379  0.84603974  0.58890437     0.06700
Zn693      Zn  0.03799224  0.84842414  0.74916256     1.49700
Zn694      Zn  0.49672735  0.86722282  0.80019102     1.49400
Zn695      Zn  0.49680110  0.86815224  0.70015253     1.49100
Zn696      Zn  0.46597711  0.80724721  0.74885114     1.49500
O697        O  0.49965249  0.84777061  0.74960903    -1.83500
O698        O  0.06222524  0.86866995  0.80217852    -0.74200
O699        O  0.50154857  0.90709149  0.78609004    -0.74000
O700        O  0.02905599  0.87502061  0.65879924    -0.73500
O701        O  0.02937832  0.87424346  0.84052666    -0.74200
O702        O  0.06167155  0.86841598  0.69588143    -0.73800
O703        O  0.50207635  0.90796121  0.71622334    -0.74400
O704        O  0.43945536  0.79953708  0.69906063    -0.73700
O705        O  0.45706738  0.84278255  0.82951607    -0.74500
O706        O  0.45691751  0.84444638  0.67106411    -0.73900
O707        O  0.43883196  0.79868405  0.79845838    -0.74400
O708        O  0.48020677  0.77824462  0.74812865    -0.74300
O709        O  0.02987117  0.80562863  0.74862846    -0.74100
C710        C  0.05443830  0.87555388  0.83650977     0.77700
C711        C  0.50337805  0.92003731  0.75148554     0.78200
C712        C  0.05384081  0.87565435  0.66200429     0.77200
C713        C  0.43742964  0.81691126  0.67303078     0.77600
C714        C  0.43715444  0.81548470  0.82600876     0.78700
C715        C  0.50575025  0.78051063  0.74813055     0.77700
C716        C  0.07408485  0.88424722  0.87346972     0.03700
C717        C  0.06363275  0.86686993  0.90995263    -0.12400
C718        C  0.08092589  0.87551781  0.94645794     0.01200
C719        C  0.10859938  0.90172719  0.94685172    -0.10900
C720        C  0.11928023  0.91932976  0.91085705     0.03700
C721        C  0.10211661  0.91052129  0.87389924    -0.10400
H722        H  0.04208374  0.84657388  0.90989440     0.09300
H723        H  0.12187034  0.90844648  0.97527087     0.06800
H724        H  0.11009775  0.92440423  0.84618072     0.06700
C725        C  0.35194571  0.91634487  0.62547993     0.03700
C726        C  0.35212871  0.88929728  0.62418361    -0.12400
C727        C  0.34398773  0.87193120  0.58721581     0.01200
C728        C  0.33594385  0.88207656  0.55157432    -0.10900
C729        C  0.33516867  0.90852236  0.55277535     0.03700
C730        C  0.34286730  0.92542727  0.58953416    -0.10400
H731        H  0.35888519  0.88196531  0.65166268     0.09300
H732        H  0.32969632  0.86916143  0.52285115     0.06800
H733        H  0.34224173  0.94596864  0.58964877     0.06700
Zn734      Zn  0.43277419  0.52370629  0.74948907     1.49700
Zn735      Zn  0.39055439  0.95192431  0.74989936     1.49400
Zn736      Zn  0.37178751  0.49340350  0.80042469     1.49100
Zn737      Zn  0.37170688  0.49389426  0.70106361     1.49500
O738        O  0.39177900  0.49049214  0.75032622    -1.83500
O739        O  0.46189208  0.50906746  0.75165123    -0.74200
O740        O  0.37099119  0.92794718  0.80351444    -0.74000
O741        O  0.39687870  0.53193598  0.83182829    -0.73500
O742        O  0.43287578  0.95970748  0.75013332    -0.74200
O743        O  0.44017267  0.55135372  0.79806339    -0.73800
O744        O  0.36295542  0.95997428  0.83930794    -0.74400
O745        O  0.33310972  0.49126308  0.71633609    -0.73700
O746        O  0.37070623  0.92843583  0.69609116    -0.74500
O747        O  0.33282614  0.49079758  0.78601569    -0.73900
O748        O  0.36237241  0.96057399  0.66126239    -0.74400
O749        O  0.39645243  0.53290972  0.67078205    -0.74300
O750        O  0.44143771  0.54954962  0.69828005    -0.74100
C751        C  0.45857517  0.48307265  0.75129363     0.77700
C752        C  0.36275749  0.93541590  0.83696276     0.78200
C753        C  0.42386470  0.55245888  0.82707945     0.77200
C754        C  0.32073666  0.49036773  0.75115137     0.77600
C755        C  0.36206249  0.93593210  0.66313777     0.78700
C756        C  0.42419419  0.55178891  0.67212939     0.77700
C757        C  0.35332957  0.91602168  0.87474587     0.03700
C758        C  0.34521797  0.92554177  0.91126281    -0.12400
C759        C  0.33789226  0.90881111  0.94805351     0.01200
C760        C  0.33807909  0.88207673  0.94882276    -0.10900
C761        C  0.34523374  0.87151466  0.91266998     0.03700
C762        C  0.35307348  0.88875195  0.87560911    -0.10400
H763        H  0.34480222  0.94619371  0.91147347     0.09300
H764        H  0.33190744  0.86920295  0.97754571     0.06800
H765        H  0.35908398  0.88107803  0.84767671     0.06700
C766        C  0.16782182  0.54307503  0.12675016     0.03700
C767        C  0.17557908  0.53298326  0.09063359    -0.12400
C768        C  0.18592842  0.55095554  0.05484525     0.01200
C769        C  0.18825520  0.57896047  0.05484228    -0.10900
C770        C  0.18023022  0.58914226  0.09040037     0.03700
C771        C  0.17017797  0.57126645  0.12659078    -0.10400
H772        H  0.17368635  0.51122188  0.09044425     0.09300
H773        H  0.19586570  0.59265474  0.02686761     0.06800
H774        H  0.16357119  0.57892005  0.15400390     0.06700
Zn775      Zn  0.13601417  0.93499088  0.24988015     1.49700
Zn776      Zn  0.10682675  0.96579607  0.30129139     1.49400
Zn777      Zn  0.16726248  0.00676647  0.25031802     1.49100
Zn778      Zn  0.10640903  0.96555252  0.19994490     1.49500
O779        O  0.12922937  0.96849626  0.25037891    -1.83500
O780        O  0.11714443  0.90813344  0.29926461    -0.74200
O781        O  0.13256342  0.99900133  0.34141203    -0.74000
O782        O  0.20212222  0.99889019  0.25012101    -0.73500
O783        O  0.09205592  0.92648901  0.33198571    -0.74200
O784        O  0.17955319  0.94931521  0.24947078    -0.73800
O785        O  0.17144736  0.53106711  0.30301382    -0.74400
O786        O  0.13199344  0.99868853  0.15975527    -0.73700
O787        O  0.07153420  0.97018551  0.28599895    -0.74500
O788        O  0.17131340  0.53069974  0.19749196    -0.73900
O789        O  0.07123793  0.96993051  0.21600204    -0.74400
O790        O  0.09146858  0.92628698  0.16877465    -0.74300
O791        O  0.11694968  0.90809139  0.20043567    -0.74100
C792        C  0.09918114  0.90645505  0.32774113     0.77700
C793        C  0.15668492  0.52379512  0.33724798     0.78200
C794        C  0.20302520  0.97480781  0.24965594     0.77200
C795        C  0.15630238  0.52335290  0.16352966     0.77600
C796        C  0.06040310  0.97156494  0.25109684     0.78700
C797        C  0.09879209  0.90636700  0.17233669     0.77700
C798        C  0.16823372  0.54381236  0.37382334     0.03700
C799        C  0.17097164  0.57215069  0.37333748    -0.12400
C800        C  0.18113268  0.59032798  0.40920709     0.01200
C801        C  0.18912487  0.58046001  0.44493623    -0.10900
C802        C  0.18636021  0.55217673  0.44601387     0.03700
C803        C  0.17557583  0.53382962  0.41036083    -0.10400
H804        H  0.16447492  0.57964728  0.34573283     0.09300
H805        H  0.19676254  0.59470737  0.47240718     0.06800
H806        H  0.17318480  0.51187642  0.41070401     0.06700
C807        C  0.34435441  0.67236324  0.57711077     0.80800
N808        N  0.31821860  0.64606701  0.57791422    -0.77500
C809        C  0.31816304  0.61991721  0.57851569     0.83300
N810        N  0.34444964  0.62012133  0.57875684    -0.77400
C811        C  0.37065421  0.64629513  0.57755773     0.83400
N812        N  0.37060786  0.67241914  0.57654122    -0.79100
Zn813      Zn  0.45216356  0.65293661  0.52941738     1.49700
Zn814      Zn  0.00972357  0.68244713  0.58803305     1.49400
Zn815      Zn  0.44443744  0.63851893  0.62689972     1.49100
Zn816      Zn  0.47579633  0.61169796  0.57100688     1.49500
O817        O  0.47067289  0.64643382  0.57876829    -1.83500
O818        O  0.47839615  0.69293960  0.50289353    -0.74200
O819        O  0.01025272  0.70183579  0.64322953    -0.74000
O820        O  0.40776415  0.64066808  0.61182043    -0.73500
O821        O  0.01899847  0.71335297  0.54275664    -0.74200
O822        O  0.41349002  0.65142233  0.54379114    -0.73800
O823        O  0.46665067  0.66887962  0.67150450    -0.74400
O824        O  0.45352872  0.57970353  0.61442984    -0.73700
O825        O  0.04260794  0.67197217  0.59020475    -0.74500
O826        O  0.43054004  0.59816099  0.65221094    -0.73900
O827        O  0.01878605  0.62311675  0.57808572    -0.74400
O828        O  0.46096389  0.59367947  0.51358333    -0.74300
O829        O  0.44389690  0.62174350  0.48607331    -0.74100
C830        C  0.00416557  0.71450897  0.51170307     0.77700
C831        C  0.49171347  0.69288362  0.67343503     0.78200
C832        C  0.39880714  0.64622054  0.57774531     0.77200
C833        C  0.43648893  0.57769423  0.64447856     0.77600
C834        C  0.04250563  0.64749657  0.58615235     0.78700
C835        C  0.44864399  0.60001562  0.48394088     0.77700
Zn836      Zn  0.04523777  0.84484488  0.42679154     1.49700
Zn837      Zn  0.01205307  0.77382974  0.40917904     1.49400
Zn838      Zn  0.07732321  0.81888419  0.37200694     1.49100
Zn839      Zn  0.06831425  0.80363533  0.46947282     1.49500
O840        O  0.05054536  0.81023197  0.41947754    -1.83500
O841        O  0.00224762  0.83271859  0.41828960    -0.74200
O842        O  0.01292618  0.75506925  0.35419885    -0.74000
O843        O  0.09105424  0.85913008  0.34693205    -0.73500
O844        O  0.47884203  0.78381195  0.40622509    -0.74200
O845        O  0.06868131  0.87799345  0.38497518    -0.73800
O846        O  0.05653364  0.78886791  0.32690472    -0.74400
O847        O  0.10735479  0.80613852  0.45607608    -0.73700
O848        O  0.00239589  0.74256034  0.45413868    -0.74500
O849        O  0.11390663  0.81740088  0.38817375    -0.73900
O850        O  0.04245775  0.76325195  0.49498241    -0.74400
O851        O  0.07537853  0.83423829  0.51327218    -0.74300
O852        O  0.05864193  0.86223653  0.48465078    -0.74100
C853        C  0.47870308  0.80818521  0.41014262     0.77700
C854        C  0.03186856  0.76452992  0.32450021     0.78200
C855        C  0.08577037  0.88001992  0.35494456     0.77200
C856        C  0.12249235  0.81183253  0.42251778     0.77600
C857        C  0.01698064  0.74146758  0.48555010     0.78700
C858        C  0.07044471  0.85586078  0.51490369     0.77700
Zn859      Zn  0.25821306  0.52447537  0.58619827     1.49700
Zn860      Zn  0.19445629  0.50219790  0.62987306     1.49400
Zn861      Zn  0.22244480  0.55898044  0.57130971     1.49100
Zn862      Zn  0.19901675  0.99357000  0.53130610     1.49500
O863        O  0.21848477  0.51978009  0.57942288    -1.83500
O864        O  0.26202957  0.50952920  0.64252936    -0.74200
O865        O  0.17933870  0.52771332  0.65468028    -0.74000
O866        O  0.26551747  0.59169340  0.57421558    -0.73500
O867        O  0.21898170  0.99719983  0.67396632    -0.74200
O868        O  0.29028571  0.56747196  0.58299044    -0.73800
O869        O  0.19984503  0.56831956  0.61498204    -0.74400
O870        O  0.19004449  0.51563269  0.48669054    -0.73700
O871        O  0.15829356  0.96252574  0.61851174    -0.74500
O872        O  0.20682990  0.56056402  0.51450518    -0.73900
O873        O  0.16032452  0.95718278  0.54969577    -0.74400
O874        O  0.22577474  0.97985067  0.50433458    -0.74300
O875        O  0.26748001  0.50277232  0.54185504    -0.74100
C876        C  0.24500193  0.00050211  0.67444650     0.77700
C877        C  0.18367001  0.55341794  0.64583878     0.78200
C878        C  0.28984535  0.59157316  0.57862692     0.77200
C879        C  0.19476298  0.54216573  0.48441443     0.77600
C880        C  0.14725030  0.94778843  0.58499461     0.78700
C881        C  0.25237884  0.98588362  0.51176376     0.77700
Zn882      Zn  0.27639341  0.92121669  0.46977755     1.49700
Zn883      Zn  0.28298585  0.91247541  0.37190517     1.49400
Zn884      Zn  0.30390568  0.97757866  0.40977119     1.49100
Zn885      Zn  0.34075703  0.94330967  0.42724656     1.49500
O886        O  0.30111636  0.93882655  0.41979884    -1.83500
O887        O  0.24019183  0.88195146  0.45616613    -0.74200
O888        O  0.27381146  0.93357563  0.32734919    -0.74000
O889        O  0.28253723  0.98764907  0.45477320    -0.73500
O890        O  0.24491146  0.87581640  0.38805437    -0.74200
O891        O  0.26143168  0.94702029  0.49449807    -0.73800
O892        O  0.28462191  0.97736087  0.35471717    -0.74400
O893        O  0.37229853  0.98627193  0.42014254    -0.73700
O894        O  0.30936028  0.89865469  0.34621149    -0.74500
O895        O  0.34743322  0.51016158  0.40742179    -0.73900
O896        O  0.35037875  0.92012253  0.38485405    -0.74400
O897        O  0.34390044  0.92893406  0.48469396    -0.74300
O898        O  0.29967351  0.91430809  0.51430207    -0.74100
C899        C  0.23084621  0.86693200  0.42251498     0.77700
C900        C  0.27468642  0.95843420  0.32503916     0.78200
C901        C  0.26603674  0.97281304  0.48547847     0.77200
C902        C  0.37176208  0.50998053  0.41202909     0.77600
C903        C  0.33538744  0.90346575  0.35444544     0.78700
C904        C  0.32586986  0.91806071  0.51542767     0.77700
C905        C  0.17720582  0.78644451  0.42422647     0.80800
N906        N  0.15087269  0.78608656  0.42392015    -0.77500
C907        C  0.15064940  0.81208822  0.42341580     0.83300
N908        N  0.17668984  0.83838374  0.42303286    -0.77400
C909        C  0.20297497  0.83870712  0.42336524     0.83400
N910        N  0.20326325  0.81275673  0.42384259    -0.79100
Zn911      Zn  0.33639491  0.79109949  0.53179152     1.49700
Zn912      Zn  0.34950919  0.79533869  0.63035792     1.49400
Zn913      Zn  0.30804242  0.73167956  0.58652248     1.49100
Zn914      Zn  0.37828716  0.76763588  0.57038844     1.49500
O915        O  0.34303084  0.77149232  0.57966433    -1.83500
O916        O  0.33926253  0.82981173  0.55026614    -0.74200
O917        O  0.31832061  0.77128009  0.67348084    -0.74000
O918        O  0.27747624  0.72241924  0.54176571    -0.73500
O919        O  0.34770285  0.83242700  0.61879353    -0.74200
O920        O  0.29562738  0.76459733  0.50559859    -0.73800
O921        O  0.28803640  0.72804681  0.64222311    -0.74400
O922        O  0.36837287  0.72487743  0.57225314    -0.73700
O923        O  0.38984331  0.80877726  0.65580998    -0.74500
O924        O  0.31945540  0.69985793  0.58333844    -0.73900
O925        O  0.41021637  0.78967645  0.61377489    -0.74400
O926        O  0.39550133  0.78348025  0.51384249    -0.74300
O927        O  0.36712869  0.79994799  0.48638426    -0.74100
C928        C  0.34369680  0.84325813  0.58535540     0.77700
C929        C  0.29528024  0.74538980  0.67371983     0.78200
C930        C  0.27534122  0.73777009  0.51247096     0.77200
C931        C  0.34406617  0.70049639  0.57752457     0.77600
C932        C  0.41132464  0.80479296  0.64580157     0.78700
C933        C  0.38903224  0.79536321  0.48383958     0.77700
Zn934      Zn  0.21577406  0.68622578  0.41070419     1.49700
Zn935      Zn  0.18631725  0.71324009  0.47104167     1.49400
Zn936      Zn  0.17122281  0.70648729  0.37337670     1.49100
Zn937      Zn  0.14471912  0.64853362  0.42877299     1.49500
O938        O  0.17954193  0.68851132  0.42116540    -1.83500
O939        O  0.24706375  0.70770611  0.45558570    -0.74200
O940        O  0.18308831  0.74933649  0.45746633    -0.74000
O941        O  0.20121182  0.71540659  0.32812233    -0.73500
O942        O  0.22723278  0.72843798  0.49554828    -0.74200
O943        O  0.23473111  0.70552822  0.35562009    -0.73800
O944        O  0.17259634  0.74453099  0.38929536    -0.74400
O945        O  0.11147418  0.63882304  0.38691105    -0.73700
O946        O  0.15602401  0.68965336  0.51560046    -0.74500
O947        O  0.13096686  0.67983622  0.34833346    -0.73900
O948        O  0.12770553  0.64476228  0.48707069    -0.74400
O949        O  0.15653497  0.61747148  0.41996088    -0.74300
O950        O  0.20549213  0.64303027  0.40776954    -0.74100
C951        C  0.24857794  0.72406126  0.48634488     0.77700
C952        C  0.17756983  0.75861589  0.42369503     0.78200
C953        C  0.22539964  0.71486063  0.32573678     0.77200
C954        C  0.10977936  0.65376743  0.35654230     0.77600
C955        C  0.13431538  0.66301461  0.51741564     0.78700
C956        C  0.18103776  0.61847489  0.41168016     0.77700
C957        C  0.10411629  0.63496534  0.62622712     0.03700
C958        C  0.12251649  0.64318651  0.59053177    -0.12400
C959        C  0.11519833  0.65371659  0.55464685     0.01200
C960        C  0.08935506  0.65577457  0.55414808    -0.10900
C961        C  0.07065381  0.64733439  0.58918020     0.03700
C962        C  0.07809622  0.63705772  0.62544401    -0.10400
H963        H  0.14255611  0.64156246  0.59077349     0.09300
H964        H  0.08355780  0.66358741  0.52616023     0.06800
H965        H  0.06346251  0.63019904  0.65250868     0.06700
Zn966      Zn  0.11954158  0.57498353  0.80224413     1.49700
Zn967      Zn  0.13987681  0.63518518  0.75034628     1.49400
Zn968      Zn  0.17984890  0.60358944  0.75079841     1.49100
Zn969      Zn  0.11915764  0.57369415  0.70140428     1.49500
O970        O  0.13948240  0.59701737  0.75122523    -1.83500
O971        O  0.11283782  0.60122850  0.84173389    -0.74200
O972        O  0.18302950  0.66943286  0.74905444    -0.74000
O973        O  0.18710271  0.58420979  0.80010034    -0.73500
O974        O  0.12068197  0.64043860  0.80359591    -0.74200
O975        O  0.14375257  0.56040250  0.83365168    -0.73800
O976        O  0.20981169  0.64675004  0.75099219    -0.74400
O977        O  0.14338192  0.55833209  0.67132686    -0.73700
O978        O  0.11990961  0.63885570  0.69717540    -0.74500
O979        O  0.18798790  0.58553449  0.70054369    -0.73900
O980        O  0.11196691  0.59904982  0.66024631    -0.74400
O981        O  0.07944689  0.53860768  0.71780312    -0.74300
O982        O  0.07955453  0.53951323  0.78774355    -0.74100
C983        C  0.11302832  0.62569897  0.83782712     0.77700
C984        C  0.20799765  0.67020604  0.74970189     0.78200
C985        C  0.17076937  0.56694906  0.82916943     0.77200
C986        C  0.17099498  0.56665867  0.67354351     0.77600
C987        C  0.11205701  0.62355588  0.66341186     0.78700
C988        C  0.06699571  0.52797819  0.75297228     0.77700
C989        C  0.10510197  0.63731714  0.87480386     0.03700
C990        C  0.07903205  0.63924462  0.87559675    -0.12400
C991        C  0.07014571  0.64743101  0.91283081     0.01200
C992        C  0.08808728  0.65431867  0.94863875    -0.10900
C993        C  0.11434399  0.65306574  0.94765892     0.03700
C994        C  0.12273722  0.64436153  0.91098472    -0.10400
H995        H  0.06524638  0.63333718  0.84775924     0.09300
H996        H  0.08188576  0.66100812  0.97738399     0.06800
H997        H  0.14294113  0.64304223  0.91060717     0.06700
C998        C  0.34298614  0.67122529  0.91894106     0.80800
N999        N  0.36933398  0.67155835  0.91987234    -0.77500
C1000       C  0.36975325  0.64564328  0.92155445     0.83300
N1001       N  0.34365044  0.61932442  0.92285824    -0.77400
C1002       C  0.31731660  0.61893193  0.92162627     0.83400
N1003       N  0.31699421  0.64482603  0.91933926    -0.79100
Zn1004     Zn  0.48777300  0.64095623  0.87012096     1.49700
Zn1005     Zn  0.49644274  0.65441695  0.96853337     1.49400
Zn1006     Zn  0.46549723  0.68222400  0.91252325     1.49100
Zn1007     Zn  0.43111631  0.61178586  0.92934366     1.49500
O1008       O  0.47019389  0.64735360  0.92043304    -1.83500
O1009       O  0.02702239  0.64396701  0.88161232    -0.74200
O1010       O  0.01003904  0.69499738  0.99455658    -0.74000
O1011       O  0.48123801  0.70127317  0.85623053    -0.73500
O1012       O  0.03281919  0.65220151  0.95020549    -0.74200
O1013       O  0.49379773  0.67055134  0.82582467    -0.73800
O1014       O  0.48706424  0.71338579  0.95659362    -0.74400
O1015       O  0.39833039  0.62184113  0.92675284    -0.73700
O1016       O  0.47467766  0.62363943  0.01396489    -0.74500
O1017       O  0.42226859  0.67073002  0.91577021    -0.73900
O1018       O  0.42975332  0.59491210  0.98639030    -0.74400
O1019       O  0.42174775  0.57953075  0.88598359    -0.74300
O1020       O  0.46195263  0.60060717  0.84538123    -0.74100
C1021       C  0.04192173  0.64802425  0.91498888     0.77700
C1022       C  0.00395810  0.71541158  0.98673540     0.78200
C1023       C  0.49081915  0.69337829  0.82484532     0.77200
C1024       C  0.39826258  0.64609072  0.92143217     0.77600
C1025       C  0.44818990  0.60155241  0.01645985     0.78700
C1026       C  0.43649343  0.57871994  0.85453519     0.77700
Zn1027     Zn  0.01223531  0.77438695  0.08937795     1.49700
Zn1028     Zn  0.06853457  0.80414581  0.02872011     1.49400
Zn1029     Zn  0.04541999  0.84544478  0.07192129     1.49100
Zn1030     Zn  0.07768529  0.81923757  0.12610965     1.49500
O1031       O  0.05078309  0.81078708  0.07891803    -1.83500
O1032       O  0.00235871  0.74323750  0.04430758    -0.74200
O1033       O  0.07566110  0.83479145  0.98521139    -0.74000
O1034       O  0.00218303  0.83311364  0.07983920    -0.73500
O1035       O  0.04242175  0.76377698  0.00320790    -0.74200
O1036       O  0.47900622  0.78430129  0.09246993    -0.73800
O1037       O  0.05946093  0.86323199  0.01415437    -0.74400
O1038       O  0.09103493  0.85929065  0.15201574    -0.73700
O1039       O  0.10766091  0.80650037  0.04152295    -0.74500
O1040       O  0.06846516  0.87820827  0.11469798    -0.73900
O1041       O  0.11446529  0.81811013  0.10930134    -0.74400
O1042       O  0.05703616  0.78868856  0.17081437    -0.74300
O1043       O  0.01308288  0.75531014  0.14405793    -0.74100
C1044       C  0.01691032  0.74215440  0.01283833     0.77700
C1045       C  0.07111159  0.85665616  0.98376765     0.78200
C1046       C  0.47869279  0.80854667  0.08816141     0.77200
C1047       C  0.08553167  0.88010569  0.14463333     0.77600
C1048       C  0.12295245  0.81236411  0.07491411     0.78700
C1049       C  0.03226352  0.76444873  0.17338560     0.77700
Zn1050     Zn  0.24364154  0.53721322  0.97067091     1.49700
Zn1051     Zn  0.21547365  0.98032120  0.91097874     1.49400
Zn1052     Zn  0.17846812  0.51420594  0.92985274     1.49100
Zn1053     Zn  0.23600670  0.54512468  0.87355992     1.49500
O1054       O  0.21821608  0.51898526  0.92153376    -1.83500
O1055       O  0.25757569  0.51086107  0.99610086    -0.74200
O1056       O  0.17201656  0.94763627  0.90847151    -0.74000
O1057       O  0.17576559  0.52863655  0.98778228    -0.73500
O1058       O  0.23718262  0.97055661  0.95565057    -0.74200
O1059       O  0.22111829  0.54555017  0.01490545    -0.73800
O1060       O  0.14689300  0.97111993  0.92240893    -0.74400
O1061       O  0.20959916  0.55854533  0.84854282    -0.73700
O1062       O  0.23442451  0.98051258  0.85554073    -0.74500
O1063       O  0.16866241  0.53732004  0.88751385    -0.73900
O1064       O  0.24454740  0.52409508  0.82847709    -0.70200
O1065       O  0.27430960  0.58185708  0.88833032    -0.74300
O1066       O  0.28062154  0.57583789  0.95581762    -0.74100
C1067       C  0.25330048  0.98518468  0.98681052     0.77700
C1068       C  0.14758819  0.94757935  0.91344209     0.78200
C1069       C  0.19460612  0.54087234  0.01734185     0.77200
C1070       C  0.18360374  0.55372247  0.85684250     0.77600
C1071       C  0.24385899  0.99937250  0.82583281     0.78700
C1072       C  0.28933160  0.59071413  0.92197792     0.77700
Zn1073     Zn  0.28338497  0.91203412  0.12717186     1.49700
Zn1074     Zn  0.34218522  0.94394965  0.07326051     1.49400
Zn1075     Zn  0.27800502  0.92093694  0.02930017     1.49100
Zn1076     Zn  0.30431743  0.97713041  0.08962125     1.49500
O1077       O  0.30209940  0.93866022  0.07972781    -1.83500
O1078       O  0.30965933  0.89822467  0.15298331    -0.74200
O1079       O  0.34632142  0.92984915  0.01588428    -0.74000
O1080       O  0.24129898  0.88175458  0.04222216    -0.73500
O1081       O  0.35140768  0.92075848  0.11578249    -0.74200
O1082       O  0.24532146  0.87541876  0.11038171    -0.73800
O1083       O  0.30189797  0.91385382  0.98617111    -0.74400
O1084       O  0.28297381  0.98669176  0.04436927    -0.73700
O1085       O  0.37332459  0.98706278  0.08142691    -0.74500
O1086       O  0.26360282  0.94678779  0.00324488    -0.73900
O1087       O  0.34759247  0.51027752  0.09251549    -0.74400
O1088       O  0.28449898  0.97666856  0.14433840    -0.74300
O1089       O  0.27383061  0.93300406  0.17181026    -0.74100
C1090       C  0.33598595  0.90357519  0.14549234     0.77700
C1091       C  0.32833696  0.91827058  0.98525919     0.78200
C1092       C  0.23150554  0.86667697  0.07573930     0.77200
C1093       C  0.26737202  0.97223297  0.01277716     0.77600
C1094       C  0.37223000  0.51056389  0.08901947     0.78700
C1095       C  0.27450935  0.95778591  0.17401331     0.77700
C1096       C  0.17718966  0.78625904  0.07518476     0.80800
N1097       N  0.20338671  0.81245132  0.07527117    -0.77500
C1098       C  0.20341396  0.83856590  0.07458096     0.83300
N1099       N  0.17724799  0.83851997  0.07409632    -0.77400
C1100       C  0.15103653  0.81235009  0.07396524     0.83400
N1101       N  0.15099086  0.78619503  0.07462805    -0.79100
Zn1102     Zn  0.37734789  0.76624924  0.92836898     1.49700
Zn1103     Zn  0.33559337  0.78972881  0.96726147     1.49400
Zn1104     Zn  0.34931473  0.79432077  0.86859290     1.49100
Zn1105     Zn  0.30693013  0.73071820  0.91181617     1.49500
O1106       O  0.34224610  0.77026963  0.91913638    -1.83500
O1107       O  0.39434986  0.78160759  0.98539621    -0.74200
O1108       O  0.33903995  0.82866292  0.94894306    -0.74000
O1109       O  0.38940494  0.80706145  0.84285531    -0.73500
O1110       O  0.36619955  0.79846292  0.01270273    -0.74200
O1111       O  0.40975147  0.78837117  0.88538759    -0.73800
O1112       O  0.34834674  0.83177260  0.88057554    -0.74400
O1113       O  0.28718967  0.72794749  0.85639477    -0.73700
O1114       O  0.29482326  0.76329328  0.99361727    -0.74500
O1115       O  0.31826335  0.77097261  0.82529950    -0.73900
O1116       O  0.27645209  0.72115325  0.95719335    -0.74400
O1117       O  0.31802124  0.69866535  0.91321904    -0.74300
O1118       O  0.36687235  0.72350376  0.92500525    -0.74100
C1119       C  0.38797783  0.79370756  0.01535303     0.77700
C1120       C  0.34419317  0.84248561  0.91409873     0.78200
C1121       C  0.41088908  0.80319402  0.85307357     0.77200
C1122       C  0.29491072  0.74534564  0.82496680     0.77600
C1123       C  0.27449538  0.73646681  0.98682567     0.78700
C1124       C  0.34260445  0.69925007  0.91884404     0.77700
Zn1125     Zn  0.14423819  0.64787641  0.07285151     1.49700
Zn1126     Zn  0.17116453  0.70645336  0.12739123     1.49400
Zn1127     Zn  0.21532948  0.68523823  0.08954613     1.49100
Zn1128     Zn  0.18590007  0.71235984  0.02992078     1.49500
O1129       O  0.17921078  0.68786379  0.07986372    -1.83500
O1130       O  0.11166048  0.63838145  0.11561049    -0.74200
O1131       O  0.20156337  0.71569099  0.17194470    -0.74000
O1132       O  0.20483054  0.64189257  0.09183259    -0.73500
O1133       O  0.13112294  0.67981000  0.15342306    -0.74200
O1134       O  0.15581515  0.61653607  0.08034074    -0.73800
O1135       O  0.23434197  0.70449228  0.14475686    -0.74400
O1136       O  0.22652011  0.72721523  0.00461705    -0.73700
O1137       O  0.17236347  0.74449285  0.11106200    -0.74500
O1138       O  0.24653419  0.70662564  0.04422824    -0.73900
O1139       O  0.18279014  0.74861775  0.04289307    -0.74400
O1140       O  0.15549397  0.68860456  0.98608210    -0.74300
O1141       O  0.12647725  0.64414075  0.01533585    -0.74100
C1142       C  0.11006264  0.65353875  0.14582175     0.77700
C1143       C  0.22542494  0.71453513  0.17440108     0.78200
C1144       C  0.18031169  0.61739059  0.08793134     0.77200
C1145       C  0.24787737  0.72281352  0.01340195     0.77600
C1146       C  0.17731819  0.75826978  0.07641202     0.78700
C1147       C  0.13336137  0.66221345  0.98478734     0.77700
C1148       C  0.41712654  0.82151118  0.37300721     0.03700
C1149       C  0.39990974  0.81447447  0.40974967    -0.12400
C1150       C  0.40736638  0.80358475  0.44525125     0.01200
C1151       C  0.43267925  0.80041496  0.44382046    -0.10900
C1152       C  0.45040647  0.80805833  0.40785759     0.03700
C1153       C  0.44248277  0.81832369  0.37214230    -0.10400
H1154       H  0.38048675  0.81714476  0.41035558     0.09300
H1155       H  0.43926142  0.79275010  0.47119656     0.06800
H1156       H  0.45642028  0.82461915  0.34436021     0.06700
Zn1157     Zn  0.40059840  0.88259072  0.19930970     1.49700
Zn1158     Zn  0.40021613  0.88243755  0.30066802     1.49400
Zn1159     Zn  0.34020007  0.85283516  0.24983291     1.49100
Zn1160     Zn  0.38138739  0.82230691  0.24962142     1.49500
O1161       O  0.38069971  0.85995071  0.24985231    -1.83500
O1162       O  0.44033334  0.91783459  0.21523504    -0.74200
O1163       O  0.37558749  0.89714752  0.33130864    -0.74000
O1164       O  0.33216401  0.87159849  0.20048570    -0.73500
O1165       O  0.43993388  0.91781686  0.28524335    -0.74200
O1166       O  0.37615205  0.89753339  0.16911972    -0.73800
O1167       O  0.33195575  0.87177827  0.29903412    -0.74400
O1168       O  0.33876818  0.78727305  0.24990294    -0.73700
O1169       O  0.40763844  0.85683933  0.34080737    -0.74500
O1170       O  0.31130048  0.80929903  0.24983505    -0.73900
O1171       O  0.40168636  0.81847278  0.30210143    -0.74400
O1172       O  0.40117697  0.81824812  0.19658966    -0.74300
O1173       O  0.40784421  0.85702251  0.15845600    -0.74100
C1174       C  0.45263265  0.92886852  0.25034560     0.77700
C1175       C  0.34834350  0.88994800  0.32723918     0.78200
C1176       C  0.34879825  0.89005963  0.17274016     0.77200
C1177       C  0.31361311  0.78607127  0.24988762     0.77600
C1178       C  0.40871775  0.83301449  0.33648587     0.78700
C1179       C  0.40843582  0.83291936  0.16235282     0.77700
C1180       C  0.41672445  0.82130478  0.12566808     0.03700
C1181       C  0.39907258  0.81345564  0.08930207    -0.12400
C1182       C  0.40645769  0.80231081  0.05383697     0.01200
C1183       C  0.43208717  0.79965960  0.05499893    -0.10900
C1184       C  0.45025201  0.80817347  0.09053893     0.03700
C1185       C  0.44241367  0.81869792  0.12614874    -0.10400
H1186       H  0.37942622  0.81574837  0.08893665     0.09300
H1187       H  0.43859820  0.79179181  0.02768770     0.06800
H1188       H  0.45662618  0.82555235  0.15362513     0.06700
C1189       C  0.75608108  0.49511427  0.71358680     0.80800
N1190       N  0.78089550  0.49265230  0.71392913    -0.77500
C1191       C  0.79239380  0.49005976  0.75087090     0.83300
N1192       N  0.77927937  0.49048628  0.78756239    -0.77400
C1193       C  0.75461741  0.49320243  0.78719748     0.83400
N1194       N  0.74332595  0.49585757  0.75028756    -0.79100
C1195       C  0.76435359  0.46475435  0.21271708     0.80800
N1196       N  0.74234161  0.47165677  0.21259416    -0.77500
C1197       C  0.73152072  0.47554120  0.24949295     0.83300
N1198       N  0.74262277  0.47219718  0.28638459    -0.77400
C1199       C  0.76461832  0.46528405  0.28628248     0.83400
N1200       N  0.77478395  0.46083670  0.24951580    -0.79100
C1201       C  0.74231747  0.22473444  0.28682866     0.80800
N1202       N  0.72776678  0.21433678  0.25005205    -0.77500
C1203       C  0.74237299  0.22450044  0.21322752     0.83300
N1204       N  0.77138541  0.24645749  0.21309815    -0.77400
C1205       C  0.78597084  0.25749411  0.24995462     0.83400
N1206       N  0.77133621  0.24666662  0.28685167    -0.79100
C1207       C  0.77769324  0.23488300  0.78620129     0.80800
N1208       N  0.79136942  0.24701430  0.74933355    -0.77500
C1209       C  0.77786485  0.23471328  0.71244659     0.83300
N1210       N  0.75016040  0.21020019  0.71247650    -0.77400
C1211       C  0.73583227  0.19864897  0.74937395     0.83400
N1212       N  0.75002881  0.21042182  0.78617829    -0.79100
C1213       C  0.50656051  0.25289726  0.74841661     0.80800
N1214       N  0.50433721  0.23861528  0.71166543    -0.77500
C1215       C  0.49897605  0.21019505  0.71205541     0.83300
N1216       N  0.49533579  0.19602516  0.74904236    -0.77400
C1217       C  0.49739685  0.21008949  0.78571521     0.83400
N1218       N  0.50235450  0.23832602  0.78533408    -0.79100
C1219       C  0.51503837  0.20411962  0.24920144     0.80800
N1220       N  0.51879705  0.21861936  0.21220370    -0.77500
C1221       C  0.52562743  0.24752152  0.21218810     0.83300
N1222       N  0.52960921  0.26204904  0.24892250    -0.77400
C1223       C  0.52526783  0.24759671  0.28574585     0.83400
N1224       N  0.51839286  0.21872053  0.28598512    -0.79100
C1225       C  0.53447153  0.47541778  0.25126245     0.80800
N1226       N  0.50663347  0.45126300  0.25088659    -0.77500
C1227       C  0.98249110  0.45487620  0.25062992     0.83300
N1228       N  0.98618636  0.48265442  0.25067828    -0.77400
C1229       C  0.51405102  0.00682278  0.25101311     0.83400
N1230       N  0.53818902  0.00320068  0.25131210    -0.79100
C1231       C  0.98514235  0.47997253  0.75215366     0.80800
N1232       N  0.51279142  0.00453334  0.75287403    -0.77500
C1233       C  0.53735219  0.00160325  0.75331646     0.83300
N1234       N  0.53432735  0.47410717  0.75291108    -0.77400
C1235       C  0.50674505  0.44957180  0.75225097     0.83400
N1236       N  0.98221155  0.45250277  0.75181494    -0.79100
C1237       C  0.94689529  0.07283693  0.12676429     0.03700
C1238       C  0.95674299  0.09055601  0.09046225    -0.12400
C1239       C  0.93829748  0.08302703  0.05490853     0.01200
C1240       C  0.91004147  0.05722147  0.05595843    -0.10900
C1241       C  0.90036828  0.03900420  0.09142657     0.03700
C1242       C  0.91865872  0.04693732  0.12709292    -0.10400
H1243       H  0.97867124  0.11035171  0.09019785     0.09300
H1244       H  0.89570439  0.05064142  0.02864814     0.06800
H1245       H  0.91128018  0.03269331  0.15450279     0.06700
Zn1246     Zn  0.55525587  0.14915737  0.25103977     1.49700
Zn1247     Zn  0.48338668  0.10855882  0.25051380     1.49400
Zn1248     Zn  0.52426512  0.08886300  0.20020696     1.49100
Zn1249     Zn  0.52424909  0.08896284  0.30143444     1.49500
O1250       O  0.52157390  0.10878489  0.25080762    -1.83500
O1251       O  0.54114622  0.17842755  0.25008163    -0.74200
O1252       O  0.95940555  0.08863148  0.19760169    -0.74000
O1253       O  0.56367859  0.11331061  0.16955348    -0.73500
O1254       O  0.49148666  0.15132259  0.25000183    -0.74200
O1255       O  0.58229505  0.15694403  0.20187487    -0.73800
O1256       O  0.49143526  0.08162298  0.15957813    -0.74400
O1257       O  0.51978275  0.04930191  0.28591292    -0.73700
O1258       O  0.95906560  0.08849494  0.30324885    -0.74500
O1259       O  0.51944978  0.04906523  0.21592902    -0.73900
O1260       O  0.49094890  0.08129429  0.34118168    -0.74400
O1261       O  0.56338808  0.11346328  0.33277777    -0.74300
O1262       O  0.58187982  0.15715208  0.30080443    -0.74100
C1263       C  0.51566776  0.17636156  0.24967059     0.77700
C1264       C  0.96677552  0.08118525  0.16344213     0.78200
C1265       C  0.58381936  0.14054128  0.17350644     0.77200
C1266       C  0.51802921  0.03665861  0.25094509     0.77600
C1267       C  0.96627083  0.08077993  0.33724416     0.78700
C1268       C  0.58343004  0.14074566  0.32906966     0.77700
C1269       C  0.94638609  0.07221677  0.37392225     0.03700
C1270       C  0.95666404  0.08946216  0.41055061    -0.12400
C1271       C  0.93872214  0.08129613  0.44645776     0.01200
C1272       C  0.91058396  0.05565004  0.44611627    -0.10900
C1273       C  0.90019437  0.03807998  0.40999663     0.03700
C1274       C  0.91800121  0.04645118  0.37364562    -0.10400
H1275       H  0.97853084  0.10935875  0.41100963     0.09300
H1276       H  0.89685739  0.04920590  0.47413759     0.06800
H1277       H  0.91019115  0.03262262  0.34583311     0.06700
C1278       C  0.57324354  0.38410151  0.62476891     0.03700
C1279       C  0.60121963  0.41035462  0.62413346    -0.12400
C1280       C  0.61845195  0.41938194  0.58702449     0.01200
C1281       C  0.60761052  0.40134079  0.55121932    -0.10900
C1282       C  0.58014944  0.37489042  0.55207071     0.03700
C1283       C  0.56285051  0.36641212  0.58858927    -0.10400
H1284       H  0.60898208  0.42410998  0.65200615     0.09300
H1285       H  0.62063978  0.40762357  0.52256508     0.06800
H1286       H  0.54140432  0.34604020  0.58890438     0.06700
Zn1287     Zn  0.53799221  0.34842408  0.74916256     1.49700
Zn1288     Zn  0.99672733  0.36722278  0.80019103     1.49400
Zn1289     Zn  0.99680114  0.36815231  0.70015251     1.49100
Zn1290     Zn  0.96597710  0.30724717  0.74885114     1.49500
O1291       O  0.99965252  0.34777063  0.74960900    -1.83500
O1292       O  0.56222529  0.36867003  0.80217850    -0.74200
O1293       O  0.00154850  0.40709149  0.78609008    -0.74000
O1294       O  0.52905605  0.37502074  0.65879929    -0.73500
O1295       O  0.52937838  0.37424354  0.84052666    -0.74200
O1296       O  0.56167152  0.36841591  0.69588137    -0.73800
O1297       O  0.00207640  0.40796120  0.71622337    -0.74400
O1298       O  0.93945537  0.29953705  0.69906058    -0.73700
O1299       O  0.95706738  0.34278249  0.82951605    -0.74500
O1300       O  0.95691741  0.34444639  0.67106418    -0.73900
O1301       O  0.93883194  0.29868398  0.79845838    -0.74400
O1302       O  0.98020681  0.27824466  0.74812866    -0.74300
O1303       O  0.52987122  0.30562860  0.74862848    -0.74100
C1304       C  0.55443836  0.37555398  0.83650976     0.77700
C1305       C  0.00337801  0.42003729  0.75148555     0.78200
C1306       C  0.55384081  0.37565440  0.66200428     0.77200
C1307       C  0.93742961  0.31691123  0.67303078     0.77600
C1308       C  0.93715444  0.31548466  0.82600874     0.78700
C1309       C  0.00575027  0.28051063  0.74813059     0.77700
C1310       C  0.57408490  0.38424729  0.87346973     0.03700
C1311       C  0.56363280  0.36686994  0.90995260    -0.12400
C1312       C  0.58092593  0.37551788  0.94645794     0.01200
C1313       C  0.60859941  0.40172725  0.94685172    -0.10900
C1314       C  0.61928029  0.41932980  0.91085704     0.03700
C1315       C  0.60211665  0.41052137  0.87389925    -0.10400
H1316       H  0.54208391  0.34657395  0.90989436     0.09300
H1317       H  0.62187034  0.40844655  0.97527085     0.06800
H1318       H  0.61009775  0.42440431  0.84618085     0.06700
C1319       C  0.85194568  0.41634481  0.62547995     0.03700
C1320       C  0.85212870  0.38929721  0.62418361    -0.12400
C1321       C  0.84398775  0.37193120  0.58721580     0.01200
C1322       C  0.83594385  0.38207654  0.55157429    -0.10900
C1323       C  0.83516870  0.40852238  0.55277536     0.03700
C1324       C  0.84286730  0.42542714  0.58953418    -0.10400
H1325       H  0.85888515  0.38196525  0.65166266     0.09300
H1326       H  0.82969630  0.36916146  0.52285125     0.06800
H1327       H  0.84224172  0.44596908  0.58964884     0.06700
Zn1328     Zn  0.93277414  0.02370638  0.74948909     1.49700
Zn1329     Zn  0.89055443  0.45192437  0.74989936     1.49400
Zn1330     Zn  0.87178745  0.99340343  0.80042470     1.49100
Zn1331     Zn  0.87170692  0.99389421  0.70106362     1.49500
O1332       O  0.89177904  0.99049214  0.75032625    -1.83500
O1333       O  0.96189201  0.00906747  0.75165122    -0.74200
O1334       O  0.87099119  0.42794718  0.80351442    -0.74000
O1335       O  0.89687874  0.03193605  0.83182827    -0.73500
O1336       O  0.93287578  0.45970749  0.75013331    -0.74200
O1337       O  0.94017273  0.05135384  0.79806339    -0.73800
O1338       O  0.86295549  0.45997432  0.83930794    -0.74400
O1339       O  0.83310977  0.99126318  0.71633607    -0.73700
O1340       O  0.87070622  0.42843576  0.69609118    -0.74500
O1341       O  0.83282611  0.99079748  0.78601567    -0.73900
O1342       O  0.86237239  0.46057392  0.66126241    -0.74400
O1343       O  0.89645243  0.03290973  0.67078207    -0.74300
O1344       O  0.94143770  0.04954957  0.69828001    -0.74100
C1345       C  0.95857509  0.98307262  0.75129363     0.77700
C1346       C  0.86275752  0.43541592  0.83696276     0.78200
C1347       C  0.92386475  0.05245898  0.82707945     0.77200
C1348       C  0.82073667  0.99036774  0.75115135     0.77600
C1349       C  0.86206246  0.43593201  0.66313781     0.78700
C1350       C  0.92419418  0.05178889  0.67212940     0.77700
C1351       C  0.85332956  0.41602166  0.87474584     0.03700
C1352       C  0.84521796  0.42554175  0.91126276    -0.12400
C1353       C  0.83789231  0.40881116  0.94805353     0.01200
C1354       C  0.83807915  0.38207681  0.94882274    -0.10900
C1355       C  0.84523373  0.37151465  0.91267004     0.03700
C1356       C  0.85307345  0.38875192  0.87560911    -0.10400
H1357       H  0.84480219  0.44619371  0.91147338     0.09300
H1358       H  0.83190742  0.36920284  0.97754618     0.06800
H1359       H  0.85908395  0.38107796  0.84767670     0.06700
C1360       C  0.66782187  0.04307508  0.12675018     0.03700
C1361       C  0.67557906  0.03298325  0.09063361    -0.12400
C1362       C  0.68592842  0.05095553  0.05484527     0.01200
C1363       C  0.68825525  0.07896049  0.05484228    -0.10900
C1364       C  0.68023027  0.08914228  0.09040037     0.03700
C1365       C  0.67017802  0.07126652  0.12659081    -0.10400
H1366       H  0.67368629  0.01122187  0.09044428     0.09300
H1367       H  0.69586575  0.09265470  0.02686773     0.06800
H1368       H  0.66357131  0.07892007  0.15400363     0.06700
Zn1369     Zn  0.63601423  0.43499098  0.24988015     1.49700
Zn1370     Zn  0.60682680  0.46579614  0.30129139     1.49400
Zn1371     Zn  0.66726241  0.50676642  0.25031801     1.49100
Zn1372     Zn  0.60640902  0.46555247  0.19994492     1.49500
O1373       O  0.62922937  0.46849630  0.25037891    -1.83500
O1374       O  0.61714450  0.40813353  0.29926464    -0.74200
O1375       O  0.63256345  0.49900133  0.34141205    -0.74000
O1376       O  0.70212227  0.49889023  0.25012099    -0.73500
O1377       O  0.59205592  0.42648902  0.33198568    -0.74200
O1378       O  0.67955321  0.44931527  0.24947078    -0.73800
O1379       O  0.67144740  0.03106717  0.30301385    -0.74400
O1380       O  0.63199347  0.49868845  0.15975526    -0.73700
O1381       O  0.57153417  0.47018544  0.28599895    -0.74500
O1382       O  0.67131343  0.03069972  0.19749195    -0.73900
O1383       O  0.57123800  0.46993062  0.21600204    -0.74400
O1384       O  0.59146862  0.42628702  0.16877461    -0.74300
O1385       O  0.61694975  0.40809149  0.20043566    -0.74100
C1386       C  0.59918116  0.40645511  0.32774113     0.77700
C1387       C  0.65668494  0.02379513  0.33724798     0.78200
C1388       C  0.70302522  0.47480784  0.24965594     0.77200
C1389       C  0.65630239  0.02335295  0.16352967     0.77600
C1390       C  0.56040310  0.47156495  0.25109684     0.78700
C1391       C  0.59879215  0.40636706  0.17233667     0.77700
C1392       C  0.66823372  0.04381234  0.37382336     0.03700
C1393       C  0.67097158  0.07215064  0.37333750    -0.12400
C1394       C  0.68113257  0.09032794  0.40920710     0.01200
C1395       C  0.68912483  0.08046001  0.44493622    -0.10900
C1396       C  0.68636026  0.05217677  0.44601386     0.03700
C1397       C  0.67557589  0.03382965  0.41036084    -0.10400
H1398       H  0.66447486  0.07964722  0.34573272     0.09300
H1399       H  0.69676252  0.09470740  0.47240720     0.06800
H1400       H  0.67318489  0.01187643  0.41070403     0.06700
C1401       C  0.84435442  0.17236323  0.57711077     0.80800
N1402       N  0.81821862  0.14606701  0.57791422    -0.77500
C1403       C  0.81816305  0.11991719  0.57851568     0.83300
N1404       N  0.84444963  0.12012130  0.57875684    -0.77400
C1405       C  0.87065419  0.14629507  0.57755773     0.83400
N1406       N  0.87060786  0.17241911  0.57654122    -0.79100
Zn1407     Zn  0.95216353  0.15293654  0.52941740     1.49700
Zn1408     Zn  0.50972353  0.18244703  0.58803304     1.49400
Zn1409     Zn  0.94443741  0.13851885  0.62689973     1.49100
Zn1410     Zn  0.97579627  0.11169787  0.57100686     1.49500
O1411       O  0.97067283  0.14643370  0.57876829    -1.83500
O1412       O  0.97839614  0.19293953  0.50289348    -0.74200
O1413       O  0.51025275  0.20183574  0.64322952    -0.74000
O1414       O  0.90776411  0.14066797  0.61182043    -0.73500
O1415       O  0.51899842  0.21335287  0.54275662    -0.74200
O1416       O  0.91348999  0.15142222  0.54379114    -0.73800
O1417       O  0.96665066  0.16887963  0.67150447    -0.74400
O1418       O  0.95352860  0.07970345  0.61442977    -0.73700
O1419       O  0.54260797  0.17197218  0.59020473    -0.74500
O1420       O  0.93054002  0.09816095  0.65221101    -0.73900
O1421       O  0.51878607  0.12311675  0.57808575    -0.74400
O1422       O  0.96096379  0.09367939  0.51358330    -0.74300
O1423       O  0.94389694  0.12174355  0.48607334    -0.74100
C1424       C  0.50416553  0.21450892  0.51170307     0.77700
C1425       C  0.99171349  0.19288361  0.67343503     0.78200
C1426       C  0.89880711  0.14622046  0.57774531     0.77200
C1427       C  0.93648891  0.07769420  0.64447859     0.77600
C1428       C  0.54250565  0.14749658  0.58615236     0.78700
C1429       C  0.94864393  0.10001562  0.48394087     0.77700
Zn1430     Zn  0.54523782  0.34484495  0.42679153     1.49700
Zn1431     Zn  0.51205310  0.27382980  0.40917904     1.49400
Zn1432     Zn  0.57732328  0.31888428  0.37200694     1.49100
Zn1433     Zn  0.56831429  0.30363542  0.46947283     1.49500
O1434       O  0.55054538  0.31023199  0.41947753    -1.83500
O1435       O  0.50224765  0.33271855  0.41828960    -0.74200
O1436       O  0.51292624  0.25506934  0.35419884    -0.74000
O1437       O  0.59105428  0.35913017  0.34693212    -0.73500
O1438       O  0.97884205  0.28381199  0.40622511    -0.74200
O1439       O  0.56868126  0.37799351  0.38497511    -0.73800
O1440       O  0.55653371  0.28886800  0.32690472    -0.74400
O1441       O  0.60735468  0.30613843  0.45607602    -0.73700
O1442       O  0.50239591  0.24256033  0.45413866    -0.74500
O1443       O  0.61390669  0.31740098  0.38817377    -0.73900
O1444       O  0.54245775  0.26325199  0.49498243    -0.74400
O1445       O  0.57537864  0.33423839  0.51327218    -0.74300
O1446       O  0.55864191  0.36223652  0.48465080    -0.74100
C1447       C  0.97870311  0.30818525  0.41014266     0.77700
C1448       C  0.53186862  0.26452999  0.32450021     0.78200
C1449       C  0.58577037  0.38001998  0.35494454     0.77200
C1450       C  0.62249230  0.31183246  0.42251777     0.77600
C1451       C  0.51698064  0.24146758  0.48555011     0.78700
C1452       C  0.57044474  0.35586082  0.51490369     0.77700
Zn1453     Zn  0.75821311  0.02447546  0.58619828     1.49700
Zn1454     Zn  0.69445626  0.00219782  0.62987306     1.49400
Zn1455     Zn  0.72244478  0.05898036  0.57130972     1.49100
Zn1456     Zn  0.69901673  0.49356995  0.53130612     1.49500
O1457       O  0.71848475  0.01978004  0.57942290    -1.83500
O1458       O  0.76202959  0.00952926  0.64252939    -0.74200
O1459       O  0.67933865  0.02771324  0.65468029    -0.74000
O1460       O  0.76551747  0.09169342  0.57421559    -0.73500
O1461       O  0.71898171  0.49719981  0.67396629    -0.74200
O1462       O  0.79028572  0.06747199  0.58299044    -0.73800
O1463       O  0.69984501  0.06831946  0.61498202    -0.74400
O1464       O  0.69004454  0.01563275  0.48669050    -0.73700
O1465       O  0.65829358  0.46252581  0.61851173    -0.74500
O1466       O  0.70682990  0.06056403  0.51450522    -0.73900
O1467       O  0.66032454  0.45718280  0.54969578    -0.74400
O1468       O  0.72577476  0.47985071  0.50433450    -0.74300
O1469       O  0.76748009  0.00277242  0.54185499    -0.74100
C1470       C  0.74500194  0.50050210  0.67444651     0.77700
C1471       C  0.68366998  0.05341787  0.64583877     0.78200
C1472       C  0.78984537  0.09157318  0.57862692     0.77200
C1473       C  0.69476302  0.04216578  0.48441442     0.77600
C1474       C  0.64725033  0.44778846  0.58499461     0.78700
C1475       C  0.75237884  0.48588363  0.51176374     0.77700
Zn1476     Zn  0.77639345  0.42121675  0.46977756     1.49700
Zn1477     Zn  0.78298591  0.41247548  0.37190517     1.49400
Zn1478     Zn  0.80390568  0.47757860  0.40977120     1.49100
Zn1479     Zn  0.84075700  0.44330960  0.42724656     1.49500
O1480       O  0.80111636  0.43882651  0.41979885    -1.83500
O1481       O  0.74019184  0.38195142  0.45616617    -0.74200
O1482       O  0.77381152  0.43357563  0.32734919    -0.74000
O1483       O  0.78253728  0.48764916  0.45477320    -0.73500
O1484       O  0.74491148  0.37581647  0.38805438    -0.74200
O1485       O  0.76143176  0.44702037  0.49449805    -0.73800
O1486       O  0.78462188  0.47736082  0.35471722    -0.74400
O1487       O  0.87229846  0.48627189  0.42014258    -0.73700
O1488       O  0.80936026  0.39865466  0.34621155    -0.74500
O1489       O  0.84743321  0.01016160  0.40742178    -0.73900
O1490       O  0.85037879  0.42012262  0.38485399    -0.74400
O1491       O  0.84390043  0.42893400  0.48469394    -0.74300
O1492       O  0.79967351  0.41430806  0.51430208    -0.74100
C1493       C  0.73084621  0.36693200  0.42251498     0.77700
C1494       C  0.77468640  0.45843415  0.32503918     0.78200
C1495       C  0.76603678  0.47281311  0.48547845     0.77200
C1496       C  0.87176209  0.00998058  0.41202909     0.77600
C1497       C  0.83538745  0.40346580  0.35444542     0.78700
C1498       C  0.82586987  0.41806070  0.51542767     0.77700
C1499       C  0.67720583  0.28644447  0.42422646     0.80800
N1500       N  0.65087268  0.28608650  0.42392016    -0.77500
C1501       C  0.65064936  0.31208814  0.42341584     0.83300
N1502       N  0.67668980  0.33838368  0.42303286    -0.77400
C1503       C  0.70297495  0.33870709  0.42336520     0.83400
N1504       N  0.70326326  0.31275671  0.42384258    -0.79100
Zn1505     Zn  0.83639489  0.29109946  0.53179133     1.49700
Zn1506     Zn  0.84950916  0.29533862  0.63035792     1.49400
Zn1507     Zn  0.80804241  0.23167952  0.58652248     1.49100
Zn1508     Zn  0.87828718  0.26763596  0.57038844     1.49500
O1509       O  0.84303078  0.27149234  0.57966427    -1.83500
O1510       O  0.83926257  0.32981175  0.55026611    -0.74200
O1511       O  0.81832063  0.27128007  0.67348088    -0.74000
O1512       O  0.77747630  0.22241933  0.54176572    -0.73500
O1513       O  0.84770289  0.33242702  0.61879353    -0.74200
O1514       O  0.79562739  0.26459739  0.50559852    -0.73800
O1515       O  0.78803640  0.22804682  0.64222310    -0.74400
O1516       O  0.86837291  0.22487749  0.57225314    -0.73700
O1517       O  0.88984327  0.30877715  0.65580997    -0.74500
O1518       O  0.81945545  0.19985798  0.58333843    -0.73900
O1519       O  0.91021636  0.28967638  0.61377490    -0.74400
O1520       O  0.89550124  0.28348018  0.51384245    -0.74300
O1521       O  0.86712868  0.29994803  0.48638424    -0.74100
C1522       C  0.84369683  0.34325814  0.58535538     0.77700
C1523       C  0.79528022  0.24538975  0.67371982     0.78200
C1524       C  0.77534125  0.23777015  0.51247095     0.77200
C1525       C  0.84406622  0.20049645  0.57752457     0.77600
C1526       C  0.91132460  0.30479287  0.64580158     0.78700
C1527       C  0.88903217  0.29536316  0.48383955     0.77700
Zn1528     Zn  0.71577404  0.18622573  0.41070419     1.49700
Zn1529     Zn  0.68631729  0.21324016  0.47104168     1.49400
Zn1530     Zn  0.67122278  0.20648722  0.37337669     1.49100
Zn1531     Zn  0.64471919  0.14853373  0.42877299     1.49500
O1532       O  0.67954199  0.18851139  0.42116542    -1.83500
O1533       O  0.74706381  0.20770616  0.45558566    -0.74200
O1534       O  0.68308831  0.24933646  0.45746633    -0.74000
O1535       O  0.70121185  0.21540665  0.32812236    -0.73500
O1536       O  0.72723276  0.22843792  0.49554833    -0.74200
O1537       O  0.73473102  0.20552810  0.35562006    -0.73800
O1538       O  0.67259631  0.24453091  0.38929537    -0.74400
O1539       O  0.61147420  0.13882309  0.38691110    -0.73700
O1540       O  0.65602403  0.18965341  0.51560050    -0.74500
O1541       O  0.63096685  0.17983618  0.34833340    -0.73900
O1542       O  0.62770559  0.14476236  0.48707066    -0.74400
O1543       O  0.65653494  0.11747153  0.41996091    -0.74300
O1544       O  0.70549207  0.14303026  0.40776952    -0.74100
C1545       C  0.74857796  0.22406126  0.48634488     0.77700
C1546       C  0.67756983  0.25861585  0.42369502     0.78200
C1547       C  0.72539960  0.21486060  0.32573677     0.77200
C1548       C  0.60977936  0.15376743  0.35654228     0.77600
C1549       C  0.63431542  0.16301465  0.51741565     0.78700
C1550       C  0.68103770  0.11847489  0.41168016     0.77700
C1551       C  0.60411630  0.13496533  0.62622712     0.03700
C1552       C  0.62251652  0.14318654  0.59053179    -0.12400
C1553       C  0.61519832  0.15371656  0.55464682     0.01200
C1554       C  0.58935506  0.15577446  0.55414814    -0.10900
C1555       C  0.57065381  0.14733437  0.58918019     0.03700
C1556       C  0.57809628  0.13705777  0.62544399    -0.10400
H1557       H  0.64255623  0.14156254  0.59077352     0.09300
H1558       H  0.58355769  0.16358747  0.52615971     0.06800
H1559       H  0.56346244  0.13019907  0.65250897     0.06700
Zn1560     Zn  0.61954164  0.07498362  0.80224415     1.49700
Zn1561     Zn  0.63987677  0.13518509  0.75034627     1.49400
Zn1562     Zn  0.67984889  0.10358938  0.75079842     1.49100
Zn1563     Zn  0.61915761  0.07369407  0.70140427     1.49500
O1564       O  0.63948238  0.09701730  0.75122521    -1.83500
O1565       O  0.61283790  0.10122858  0.84173394    -0.74200
O1566       O  0.68302947  0.16943279  0.74905444    -0.74000
O1567       O  0.68710277  0.08420982  0.80010036    -0.73500
O1568       O  0.62068195  0.14043859  0.80359585    -0.74200
O1569       O  0.64375262  0.06040257  0.83365168    -0.73800
O1570       O  0.70981173  0.14675004  0.75099218    -0.74400
O1571       O  0.64338195  0.05833216  0.67132681    -0.73700
O1572       O  0.61990959  0.13885564  0.69717541    -0.74500
O1573       O  0.68798792  0.08553443  0.70054373    -0.73900
O1574       O  0.61196688  0.09904976  0.66024630    -0.74400
O1575       O  0.57944690  0.03860763  0.71780310    -0.74300
O1576       O  0.57955458  0.03951335  0.78774353    -0.74100
C1577       C  0.61302836  0.12569903  0.83782712     0.77700
C1578       C  0.70799763  0.17020601  0.74970188     0.78200
C1579       C  0.67076940  0.06694908  0.82916941     0.77200
C1580       C  0.67099500  0.06665867  0.67354350     0.77600
C1581       C  0.61205701  0.12355584  0.66341185     0.78700
C1582       C  0.56699574  0.02797824  0.75297229     0.77700
C1583       C  0.60510203  0.13731723  0.87480385     0.03700
C1584       C  0.57903213  0.13924474  0.87559673    -0.12400
C1585       C  0.57014576  0.14743107  0.91283080     0.01200
C1586       C  0.58808736  0.15431879  0.94863872    -0.10900
C1587       C  0.61434405  0.15306582  0.94765891     0.03700
C1588       C  0.62273723  0.14436152  0.91098476    -0.10400
H1589       H  0.56524648  0.13333730  0.84775924     0.09300
H1590       H  0.58188583  0.16100825  0.97738399     0.06800
H1591       H  0.64294106  0.14304214  0.91060723     0.06700
C1592       C  0.84298614  0.17122529  0.91894107     0.80800
N1593       N  0.86933395  0.17155834  0.91987235    -0.77500
C1594       C  0.86975326  0.14564329  0.92155445     0.83300
N1595       N  0.84365043  0.11932440  0.92285824    -0.77400
C1596       C  0.81731660  0.11893191  0.92162629     0.83400
N1597       N  0.81699418  0.14482599  0.91933927    -0.79100
Zn1598     Zn  0.98777307  0.14095633  0.87012097     1.49700
Zn1599     Zn  0.99644272  0.15441688  0.96853336     1.49400
Zn1600     Zn  0.96549726  0.18222407  0.91252325     1.49100
Zn1601     Zn  0.93111637  0.11178596  0.92934367     1.49500
O1602       O  0.97019395  0.14735370  0.92043305    -1.83500
O1603       O  0.52702234  0.14396694  0.88161233    -0.74200
O1604       O  0.51003904  0.19499733  0.99455663    -0.74000
O1605       O  0.98123801  0.20127320  0.85623054    -0.73500
O1606       O  0.53281918  0.15220144  0.95020550    -0.74200
O1607       O  0.99379770  0.17055135  0.82582465    -0.73800
O1608       O  0.98706409  0.21338570  0.95659372    -0.74400
O1609       O  0.89833042  0.12184118  0.92675286    -0.73700
O1610       O  0.97467764  0.12363944  0.01396491    -0.74500
O1611       O  0.92226861  0.17073005  0.91577018    -0.73900
O1612       O  0.92975334  0.09491205  0.98639028    -0.74400
O1613       O  0.92174782  0.07953087  0.88598358    -0.74300
O1614       O  0.96195270  0.10060729  0.84538123    -0.74100
C1615       C  0.54192171  0.14802418  0.91498888     0.77700
C1616       C  0.50395808  0.21541151  0.98673546     0.78200
C1617       C  0.99081913  0.19337832  0.82484532     0.77200
C1618       C  0.89826259  0.14609075  0.92143217     0.77600
C1619       C  0.94818989  0.10155239  0.01645984     0.78700
C1620       C  0.93649350  0.07872006  0.85453519     0.77700
Zn1621     Zn  0.51223534  0.27438702  0.08937796     1.49700
Zn1622     Zn  0.56853462  0.30414587  0.02872010     1.49400
Zn1623     Zn  0.54542004  0.34544485  0.07192128     1.49100
Zn1624     Zn  0.57768526  0.31923749  0.12610965     1.49500
O1625       O  0.55078310  0.31078709  0.07891802    -1.83500
O1626       O  0.50235874  0.24323755  0.04430757    -0.74200
O1627       O  0.57566117  0.33479156  0.98521140    -0.74000
O1628       O  0.50218303  0.33311363  0.07983918    -0.73500
O1629       O  0.54242177  0.26377694  0.00320788    -0.74200
O1630       O  0.97900624  0.28430139  0.09246993    -0.73800
O1631       O  0.55946100  0.36323210  0.01415438    -0.74400
O1632       O  0.59103493  0.35929063  0.15201576    -0.73700
O1633       O  0.60766091  0.30650034  0.04152295    -0.74500
O1634       O  0.56846517  0.37820826  0.11469801    -0.73900
O1635       O  0.61446527  0.31811007  0.10930135    -0.74400
O1636       O  0.55703614  0.28868856  0.17081439    -0.74300
O1637       O  0.51308290  0.25531011  0.14405788    -0.74100
C1638       C  0.51691033  0.24215437  0.01283835     0.77700
C1639       C  0.57111165  0.35665627  0.98376766     0.78200
C1640       C  0.97869278  0.30854673  0.08816137     0.77200
C1641       C  0.58553170  0.38010570  0.14463334     0.77600
C1642       C  0.62295247  0.31236411  0.07491410     0.78700
C1643       C  0.53226349  0.26444871  0.17338559     0.77700
Zn1644     Zn  0.74364151  0.03721313  0.97067091     1.49700
Zn1645     Zn  0.71547370  0.48032129  0.91097875     1.49400
Zn1646     Zn  0.67846808  0.01420587  0.92985275     1.49100
Zn1647     Zn  0.73600672  0.04512471  0.87355993     1.49500
O1648       O  0.71821605  0.01898520  0.92153375    -1.83500
O1649       O  0.75757569  0.01086100  0.99610085    -0.74200
O1650       O  0.67201662  0.44763635  0.90847153    -0.74000
O1651       O  0.67576556  0.02863661  0.98778227    -0.73500
O1652       O  0.73718268  0.47055669  0.95565055    -0.74200
O1653       O  0.72111826  0.04555019  0.01490541    -0.73800
O1654       O  0.64689302  0.47111997  0.92240892    -0.74400
O1655       O  0.70959914  0.05854526  0.84854278    -0.73700
O1656       O  0.73442437  0.48051257  0.85554069    -0.74500
O1657       O  0.66866243  0.03732008  0.88751389    -0.73900
O1658       O  0.74454726  0.02409503  0.82847705    -0.70200
O1659       O  0.77430961  0.08185704  0.88833032    -0.74300
O1660       O  0.78062153  0.07583782  0.95581760    -0.74100
C1661       C  0.75330050  0.48518473  0.98681052     0.77700
C1662       C  0.64758824  0.44757940  0.91344209     0.78200
C1663       C  0.69460609  0.04087235  0.01734184     0.77200
C1664       C  0.68360375  0.05372244  0.85684247     0.77600
C1665       C  0.74385896  0.49937252  0.82583280     0.78700
C1666       C  0.78933159  0.09071408  0.92197793     0.77700
Zn1667     Zn  0.78338500  0.41203422  0.12717184     1.49700
Zn1668     Zn  0.84218520  0.44394959  0.07326051     1.49400
Zn1669     Zn  0.77800501  0.42093690  0.02930018     1.49100
Zn1670     Zn  0.80431751  0.47713052  0.08962125     1.49500
O1671       O  0.80209944  0.43866030  0.07972780    -1.83500
O1672       O  0.80965931  0.39822478  0.15298335    -0.74200
O1673       O  0.84632148  0.42984924  0.01588427    -0.74000
O1674       O  0.74129900  0.38175459  0.04222214    -0.73500
O1675       O  0.85140763  0.42075839  0.11578248    -0.74200
O1676       O  0.74532140  0.37541886  0.11038175    -0.73800
O1677       O  0.80189803  0.41385391  0.98617110    -0.74400
O1678       O  0.78297387  0.48669186  0.04436926    -0.73700
O1679       O  0.87332459  0.48706275  0.08142693    -0.74500
O1680       O  0.76360288  0.44678787  0.00324490    -0.73900
O1681       O  0.84759243  0.01027743  0.09251549    -0.74400
O1682       O  0.78449905  0.47666863  0.14433844    -0.74300
O1683       O  0.77383062  0.43300409  0.17181025    -0.74100
C1684       C  0.83598590  0.40357519  0.14549237     0.77700
C1685       C  0.82833703  0.41827069  0.98525916     0.78200
C1686       C  0.73150555  0.36667701  0.07573930     0.77200
C1687       C  0.76737208  0.47223307  0.01277718     0.77600
C1688       C  0.87222999  0.01056386  0.08901946     0.78700
C1689       C  0.77450940  0.45778596  0.17401332     0.77700
C1690       C  0.67718968  0.28625905  0.07518476     0.80800
N1691       N  0.70338673  0.31245133  0.07527116    -0.77500
C1692       C  0.70341399  0.33856592  0.07458094     0.83300
N1693       N  0.67724802  0.33852000  0.07409632    -0.77400
C1694       C  0.65103656  0.31235012  0.07396524     0.83400
N1695       N  0.65099089  0.28619506  0.07462805    -0.79100
Zn1696     Zn  0.87734787  0.26624917  0.92836898     1.49700
Zn1697     Zn  0.83559334  0.28972871  0.96726147     1.49400
Zn1698     Zn  0.84931471  0.29432072  0.86859290     1.49100
Zn1699     Zn  0.80693011  0.23071811  0.91181617     1.49500
O1700       O  0.84224606  0.27026953  0.91913638    -1.83500
O1701       O  0.89434984  0.28160754  0.98539624    -0.74200
O1702       O  0.83903994  0.32866287  0.94894306    -0.74000
O1703       O  0.88940497  0.30706150  0.84285532    -0.73500
O1704       O  0.86619952  0.29846286  0.01270271    -0.74200
O1705       O  0.90975149  0.28837121  0.88538761    -0.73800
O1706       O  0.84834666  0.33177260  0.88057551    -0.74400
O1707       O  0.78718967  0.22794750  0.85639478    -0.73700
O1708       O  0.79482324  0.26329323  0.99361733    -0.74500
O1709       O  0.81826338  0.27097258  0.82529945    -0.73900
O1710       O  0.77645209  0.22115325  0.95719332    -0.74400
O1711       O  0.81802121  0.19866530  0.91321905    -0.74300
O1712       O  0.86687234  0.22350375  0.92500522    -0.74100
C1713       C  0.88797783  0.29370756  0.01535301     0.77700
C1714       C  0.84419315  0.34248561  0.91409875     0.78200
C1715       C  0.91088910  0.30319404  0.85307356     0.77200
C1716       C  0.79491070  0.24534559  0.82496681     0.77600
C1717       C  0.77449536  0.23646677  0.98682567     0.78700
C1718       C  0.84260442  0.19925004  0.91884404     0.77700
Zn1719     Zn  0.64423816  0.14787633  0.07285149     1.49700
Zn1720     Zn  0.67116449  0.20645326  0.12739123     1.49400
Zn1721     Zn  0.71532945  0.18523815  0.08954613     1.49100
Zn1722     Zn  0.68590005  0.21235977  0.02992079     1.49500
O1723       O  0.67921075  0.18786369  0.07986372    -1.83500
O1724       O  0.61166048  0.13838144  0.11561045    -0.74200
O1725       O  0.70156334  0.21569093  0.17194468    -0.74000
O1726       O  0.70483054  0.14189259  0.09183258    -0.73500
O1727       O  0.63112292  0.17980995  0.15342312    -0.74200
O1728       O  0.65581515  0.11653603  0.08034075    -0.73800
O1729       O  0.73434196  0.20449223  0.14475688    -0.74400
O1730       O  0.72652013  0.22721527  0.00461709    -0.73700
O1731       O  0.67236344  0.24449278  0.11106200    -0.74500
O1732       O  0.74653410  0.20662554  0.04422818    -0.73900
O1733       O  0.68279010  0.24861767  0.04289308    -0.74400
O1734       O  0.65549399  0.18860460  0.98608214    -0.74300
O1735       O  0.62647728  0.14414074  0.01533579    -0.74100
C1736       C  0.61006262  0.15353870  0.14582175     0.77700
C1737       C  0.72542493  0.21453512  0.17440106     0.78200
C1738       C  0.68031171  0.11739060  0.08793133     0.77200
C1739       C  0.74787733  0.22281347  0.01340193     0.77600
C1740       C  0.67731818  0.25826973  0.07641202     0.78700
C1741       C  0.63336140  0.16221350  0.98478733     0.77700
C1742       C  0.91712654  0.32151117  0.37300721     0.03700
C1743       C  0.89990968  0.31447441  0.40974965    -0.12400
C1744       C  0.90736628  0.30358466  0.44525121     0.01200
C1745       C  0.93267916  0.30041488  0.44382045    -0.10900
C1746       C  0.95040649  0.30805838  0.40785763     0.03700
C1747       C  0.94248274  0.31832367  0.37214235    -0.10400
H1748       H  0.88048666  0.31714467  0.41035550     0.09300
H1749       H  0.93926130  0.29274999  0.47119652     0.06800
H1750       H  0.95642034  0.32461915  0.34436002     0.06700
Zn1751     Zn  0.90059836  0.38259065  0.19930970     1.49700
Zn1752     Zn  0.90021604  0.38243763  0.30066802     1.49400
Zn1753     Zn  0.84020005  0.35283510  0.24983292     1.49100
Zn1754     Zn  0.88138725  0.32230684  0.24962142     1.49500
O1755       O  0.88069966  0.35995065  0.24985233    -1.83500
O1756       O  0.94033334  0.41783452  0.21523505    -0.74200
O1757       O  0.87558749  0.39714766  0.33130866    -0.74000
O1758       O  0.83216392  0.37159838  0.20048569    -0.73500
O1759       O  0.93993379  0.41781699  0.28524335    -0.74200
O1760       O  0.87615195  0.39753331  0.16911972    -0.73800
O1761       O  0.83195578  0.37177835  0.29903409    -0.74400
O1762       O  0.83876812  0.28727308  0.24990293    -0.73700
O1763       O  0.90763839  0.35683928  0.34080731    -0.74500
O1764       O  0.81130045  0.30929907  0.24983506    -0.73900
O1765       O  0.90168629  0.31847268  0.30210144    -0.74400
O1766       O  0.90117700  0.31824822  0.19658966    -0.74300
O1767       O  0.90784427  0.35702259  0.15845598    -0.74100
C1768       C  0.95263263  0.42886853  0.25034560     0.77700
C1769       C  0.84834352  0.38994810  0.32723916     0.78200
C1770       C  0.84879815  0.39005956  0.17274019     0.77200
C1771       C  0.81361306  0.28607130  0.24988762     0.77600
C1772       C  0.90871772  0.33301444  0.33648585     0.78700
C1773       C  0.90843590  0.33291947  0.16235283     0.77700
C1774       C  0.91672449  0.32130487  0.12566809     0.03700
C1775       C  0.89907262  0.31345577  0.08930206    -0.12400
C1776       C  0.90645769  0.30231088  0.05383696     0.01200
C1777       C  0.93208709  0.29965958  0.05499897    -0.10900
C1778       C  0.95025197  0.30817347  0.09053892     0.03700
C1779       C  0.94241363  0.31869789  0.12614872    -0.10400
H1780       H  0.87942630  0.31574855  0.08893663     0.09300
H1781       H  0.93859810  0.29179171  0.02768765     0.06800
H1782       H  0.95662626  0.32555234  0.15362536     0.06700
C1783       C  0.75608104  0.99511424  0.71358680     0.80800
N1784       N  0.78089552  0.99265233  0.71392911    -0.77500
C1785       C  0.79239380  0.99005973  0.75087086     0.83300
N1786       N  0.77927936  0.99048619  0.78756237    -0.77400
C1787       C  0.75461745  0.99320246  0.78719748     0.83400
N1788       N  0.74332601  0.99585763  0.75028757    -0.79100
C1789       C  0.76435358  0.96475432  0.21271710     0.80800
N1790       N  0.74234165  0.97165685  0.21259416    -0.77500
C1791       C  0.73152079  0.97554131  0.24949294     0.83300
N1792       N  0.74262283  0.97219730  0.28638459    -0.77400
C1793       C  0.76461837  0.96528413  0.28628249     0.83400
N1794       N  0.77478395  0.96083673  0.24951583    -0.79100
C1795       C  0.74231746  0.72473450  0.28682865     0.80800
N1796       N  0.72776679  0.71433687  0.25005205    -0.77500
C1797       C  0.74237298  0.72450050  0.21322753     0.83300
N1798       N  0.77138544  0.74645754  0.21309815    -0.77400
C1799       C  0.78597088  0.75749406  0.24995462     0.83400
N1800       N  0.77133626  0.74666659  0.28685166    -0.79100
C1801       C  0.77769320  0.73488300  0.78620130     0.80800
N1802       N  0.79136947  0.74701432  0.74933357    -0.77500
C1803       C  0.77786486  0.73471326  0.71244659     0.83300
N1804       N  0.75016046  0.71020023  0.71247650    -0.77400
C1805       C  0.73583225  0.69864899  0.74937393     0.83400
N1806       N  0.75002878  0.71042191  0.78617828    -0.79100
C1807       C  0.50656057  0.75289730  0.74841661     0.80800
N1808       N  0.50433723  0.73861526  0.71166544    -0.77500
C1809       C  0.49897607  0.71019507  0.71205541     0.83300
N1810       N  0.49533578  0.69602513  0.74904235    -0.77400
C1811       C  0.49739683  0.71008950  0.78571522     0.83400
N1812       N  0.50235456  0.73832601  0.78533408    -0.79100
C1813       C  0.51503836  0.70411956  0.24920142     0.80800
N1814       N  0.51879711  0.71861935  0.21220369    -0.77500
C1815       C  0.52562745  0.74752147  0.21218810     0.83300
N1816       N  0.52960918  0.76204897  0.24892252    -0.77400
C1817       C  0.52526773  0.74759659  0.28574587     0.83400
N1818       N  0.51839282  0.71872045  0.28598512    -0.79100
C1819       C  0.53447151  0.97541777  0.25126244     0.80800
N1820       N  0.50663345  0.95126300  0.25088660    -0.77500
C1821       C  0.98249111  0.95487620  0.25062997     0.83300
N1822       N  0.98618632  0.98265439  0.25067828    -0.77400
C1823       C  0.51405103  0.50682278  0.25101311     0.83400
N1824       N  0.53818900  0.50320069  0.25131210    -0.79100
C1825       C  0.98514232  0.97997252  0.75215366     0.80800
N1826       N  0.51279144  0.50453331  0.75287402    -0.77500
C1827       C  0.53735217  0.50160321  0.75331642     0.83300
N1828       N  0.53432734  0.97410720  0.75291110    -0.77400
C1829       C  0.50674505  0.94957183  0.75225103     0.83400
N1830       N  0.98221157  0.95250275  0.75181495    -0.79100
C1831       C  0.94689534  0.57283698  0.12676430     0.03700
C1832       C  0.95674311  0.59055612  0.09046225    -0.12400
C1833       C  0.93829750  0.58302704  0.05490851     0.01200
C1834       C  0.91004148  0.55722156  0.05595850    -0.10900
C1835       C  0.90036833  0.53900423  0.09142656     0.03700
C1836       C  0.91865879  0.54693738  0.12709293    -0.10400
H1837       H  0.97867093  0.61035147  0.09019786     0.09300
H1838       H  0.89570427  0.55064151  0.02864809     0.06800
H1839       H  0.91128027  0.53269337  0.15450275     0.06700
Zn1840     Zn  0.55525591  0.64915742  0.25103976     1.49700
Zn1841     Zn  0.48338653  0.60855873  0.25051380     1.49400
Zn1842     Zn  0.52426520  0.58886309  0.20020696     1.49100
Zn1843     Zn  0.52424916  0.58896291  0.30143445     1.49500
O1844       O  0.52157382  0.60878488  0.25080762    -1.83500
O1845       O  0.54114621  0.67842753  0.25008163    -0.74200
O1846       O  0.95940561  0.58863152  0.19760172    -0.74000
O1847       O  0.56367864  0.61331071  0.16955350    -0.73500
O1848       O  0.49148661  0.65132254  0.25000184    -0.74200
O1849       O  0.58229511  0.65694413  0.20187487    -0.73800
O1850       O  0.49143530  0.58162304  0.15957812    -0.74400
O1851       O  0.51978285  0.54930199  0.28591291    -0.73700
O1852       O  0.95906546  0.58849483  0.30324882    -0.74500
O1853       O  0.51944987  0.54906530  0.21592902    -0.73900
O1854       O  0.49094888  0.58129420  0.34118170    -0.74400
O1855       O  0.56338813  0.61346329  0.33277778    -0.74300
O1856       O  0.58187977  0.65715209  0.30080447    -0.74100
C1857       C  0.51566773  0.67636152  0.24967057     0.77700
C1858       C  0.96677557  0.58118529  0.16344217     0.78200
C1859       C  0.58381939  0.64054138  0.17350640     0.77200
C1860       C  0.51802925  0.53665866  0.25094509     0.77600
C1861       C  0.96627072  0.58077986  0.33724415     0.78700
C1862       C  0.58343007  0.64074569  0.32906966     0.77700
C1863       C  0.94638605  0.57221674  0.37392224     0.03700
C1864       C  0.95666406  0.58946208  0.41055065    -0.12400
C1865       C  0.93872216  0.58129607  0.44645779     0.01200
C1866       C  0.91058397  0.55564997  0.44611634    -0.10900
C1867       C  0.90019438  0.53807995  0.40999663     0.03700
C1868       C  0.91800117  0.54645125  0.37364566    -0.10400
H1869       H  0.97853093  0.60935870  0.41100966     0.09300
H1870       H  0.89685747  0.54920584  0.47413743     0.06800
H1871       H  0.91019097  0.53262253  0.34583267     0.06700
C1872       C  0.57324353  0.88410144  0.62476891     0.03700
C1873       C  0.60121968  0.91035467  0.62413355    -0.12400
C1874       C  0.61845193  0.91938191  0.58702448     0.01200
C1875       C  0.60761057  0.90134081  0.55121920    -0.10900
C1876       C  0.58014939  0.87489038  0.55207071     0.03700
C1877       C  0.56285068  0.86641227  0.58858926    -0.10400
H1878       H  0.60898193  0.92410975  0.65200558     0.09300
H1879       H  0.62063949  0.90762344  0.52256563     0.06800
H1880       H  0.54140345  0.84603939  0.58890439     0.06700
Zn1881     Zn  0.53799228  0.84842414  0.74916255     1.49700
Zn1882     Zn  0.99672728  0.86722282  0.80019102     1.49400
Zn1883     Zn  0.99680113  0.86815224  0.70015253     1.49100
Zn1884     Zn  0.96597717  0.80724722  0.74885114     1.49500
O1885       O  0.99965250  0.84777062  0.74960905    -1.83500
O1886       O  0.56222523  0.86866995  0.80217854    -0.74200
O1887       O  0.00154851  0.90709149  0.78609005    -0.74000
O1888       O  0.52905601  0.87502061  0.65879929    -0.73500
O1889       O  0.52937831  0.87424346  0.84052667    -0.74200
O1890       O  0.56167161  0.86841598  0.69588141    -0.73800
O1891       O  0.00207649  0.90796124  0.71622335    -0.74400
O1892       O  0.93945544  0.79953709  0.69906060    -0.73700
O1893       O  0.95706740  0.84278254  0.82951609    -0.74500
O1894       O  0.95691747  0.84444641  0.67106416    -0.73900
O1895       O  0.93883202  0.79868405  0.79845838    -0.74400
O1896       O  0.98020675  0.77824461  0.74812865    -0.74300
O1897       O  0.52987120  0.80562862  0.74862846    -0.74100
C1898       C  0.55443829  0.87555389  0.83650979     0.77700
C1899       C  0.00337809  0.92003732  0.75148554     0.78200
C1900       C  0.55384084  0.87565436  0.66200430     0.77200
C1901       C  0.93742967  0.81691126  0.67303078     0.77600
C1902       C  0.93715448  0.81548469  0.82600877     0.78700
C1903       C  0.00575023  0.78051063  0.74813056     0.77700
C1904       C  0.57408487  0.88424723  0.87346973     0.03700
C1905       C  0.56363279  0.86686992  0.90995261    -0.12400
C1906       C  0.58092592  0.87551781  0.94645794     0.01200
C1907       C  0.60859943  0.90172717  0.94685171    -0.10900
C1908       C  0.61928029  0.91932975  0.91085704     0.03700
C1909       C  0.60211665  0.91052129  0.87389923    -0.10400
H1910       H  0.54208380  0.84657389  0.90989440     0.09300
H1911       H  0.62187038  0.90844646  0.97527089     0.06800
H1912       H  0.61009778  0.92440425  0.84618076     0.06700
C1913       C  0.85194566  0.91634486  0.62547995     0.03700
C1914       C  0.85212863  0.88929727  0.62418357    -0.12400
C1915       C  0.84398775  0.87193123  0.58721581     0.01200
C1916       C  0.83594388  0.88207657  0.55157431    -0.10900
C1917       C  0.83516865  0.90852236  0.55277537     0.03700
C1918       C  0.84286729  0.92542722  0.58953415    -0.10400
H1919       H  0.85888517  0.88196520  0.65166303     0.09300
H1920       H  0.82969637  0.86916145  0.52285115     0.06800
H1921       H  0.84224177  0.94596901  0.58964875     0.06700
Zn1922     Zn  0.93277412  0.52370629  0.74948907     1.49700
Zn1923     Zn  0.89055442  0.95192431  0.74989936     1.49400
Zn1924     Zn  0.87178755  0.49340350  0.80042469     1.49100
Zn1925     Zn  0.87170690  0.49389426  0.70106362     1.49500
O1926       O  0.89177901  0.49049213  0.75032622    -1.83500
O1927       O  0.96189200  0.50906745  0.75165123    -0.74200
O1928       O  0.87099122  0.92794718  0.80351444    -0.74000
O1929       O  0.89687867  0.53193600  0.83182825    -0.73500
O1930       O  0.93287573  0.95970749  0.75013332    -0.74200
O1931       O  0.94017266  0.55135369  0.79806345    -0.73800
O1932       O  0.86295542  0.95997427  0.83930792    -0.74400
O1933       O  0.83310968  0.49126309  0.71633607    -0.73700
O1934       O  0.87070628  0.92843583  0.69609114    -0.74500
O1935       O  0.83282615  0.49079757  0.78601568    -0.73900
O1936       O  0.86237247  0.96057400  0.66126239    -0.74400
O1937       O  0.89645247  0.53290969  0.67078206    -0.74300
O1938       O  0.94143775  0.54954964  0.69828002    -0.74100
C1939       C  0.95857514  0.48307266  0.75129363     0.77700
C1940       C  0.86275749  0.93541591  0.83696276     0.78200
C1941       C  0.92386470  0.55245889  0.82707944     0.77200
C1942       C  0.82073664  0.49036772  0.75115137     0.77600
C1943       C  0.86206252  0.93593210  0.66313777     0.78700
C1944       C  0.92419420  0.55178892  0.67212941     0.77700
C1945       C  0.85332958  0.91602168  0.87474586     0.03700
C1946       C  0.84521803  0.92554179  0.91126285    -0.12400
C1947       C  0.83789229  0.90881112  0.94805353     0.01200
C1948       C  0.83807915  0.88207675  0.94882280    -0.10900
C1949       C  0.84523377  0.87151466  0.91266998     0.03700
C1950       C  0.85307341  0.88875195  0.87560916    -0.10400
H1951       H  0.84480229  0.94619370  0.91147350     0.09300
H1952       H  0.83190751  0.86920295  0.97754576     0.06800
H1953       H  0.85908395  0.88107786  0.84767625     0.06700
C1954       C  0.66782187  0.54307504  0.12675016     0.03700
C1955       C  0.67557912  0.53298321  0.09063359    -0.12400
C1956       C  0.68592849  0.55095556  0.05484527     0.01200
C1957       C  0.68825525  0.57896048  0.05484227    -0.10900
C1958       C  0.68023025  0.58914226  0.09040037     0.03700
C1959       C  0.67017804  0.57126646  0.12659078    -0.10400
H1960       H  0.67368638  0.51122207  0.09044422     0.09300
H1961       H  0.69586570  0.59265470  0.02686761     0.06800
H1962       H  0.66357125  0.57892005  0.15400390     0.06700
Zn1963     Zn  0.63601422  0.93499087  0.24988015     1.49700
Zn1964     Zn  0.60682678  0.96579608  0.30129138     1.49400
Zn1965     Zn  0.66726239  0.00676648  0.25031802     1.49100
Zn1966     Zn  0.60640909  0.96555252  0.19994490     1.49500
O1967       O  0.62922940  0.96849624  0.25037892    -1.83500
O1968       O  0.61714444  0.90813347  0.29926466    -0.74200
O1969       O  0.63256339  0.99900137  0.34141201    -0.74000
O1970       O  0.70212215  0.99889017  0.25012099    -0.73500
O1971       O  0.59205585  0.92648898  0.33198566    -0.74200
O1972       O  0.67955325  0.94931520  0.24947078    -0.73800
O1973       O  0.67144743  0.53106712  0.30301384    -0.74400
O1974       O  0.63199349  0.99868850  0.15975522    -0.73700
O1975       O  0.57153421  0.97018550  0.28599894    -0.74500
O1976       O  0.67131344  0.53069971  0.19749193    -0.73900
O1977       O  0.57123795  0.96993051  0.21600204    -0.74400
O1978       O  0.59146862  0.92628702  0.16877460    -0.74300
O1979       O  0.61694962  0.90809136  0.20043571    -0.74100
C1980       C  0.59918110  0.90645506  0.32774113     0.77700
C1981       C  0.65668495  0.52379513  0.33724797     0.78200
C1982       C  0.70302521  0.97480782  0.24965593     0.77200
C1983       C  0.65630239  0.52335289  0.16352966     0.77600
C1984       C  0.56040309  0.97156491  0.25109684     0.78700
C1985       C  0.59879208  0.90636700  0.17233671     0.77700
C1986       C  0.66823364  0.54381235  0.37382336     0.03700
C1987       C  0.67097152  0.57215070  0.37333744    -0.12400
C1988       C  0.68113258  0.59032796  0.40920711     0.01200
C1989       C  0.68912490  0.58046004  0.44493618    -0.10900
C1990       C  0.68636023  0.55217674  0.44601383     0.03700
C1991       C  0.67557576  0.53382966  0.41036083    -0.10400
H1992       H  0.66447490  0.57964721  0.34573313     0.09300
H1993       H  0.69676264  0.59470742  0.47240711     0.06800
H1994       H  0.67318469  0.51187619  0.41070401     0.06700
C1995       C  0.84435447  0.67236324  0.57711077     0.80800
N1996       N  0.81821867  0.64606701  0.57791422    -0.77500
C1997       C  0.81816309  0.61991721  0.57851569     0.83300
N1998       N  0.84444969  0.62012132  0.57875684    -0.77400
C1999       C  0.87065427  0.64629513  0.57755772     0.83400
N2000       N  0.87060792  0.67241914  0.57654122    -0.79100
Zn2001     Zn  0.95216362  0.65293662  0.52941739     1.49700
Zn2002     Zn  0.50972361  0.68244712  0.58803304     1.49400
Zn2003     Zn  0.94443736  0.63851893  0.62689972     1.49100
Zn2004     Zn  0.97579623  0.61169796  0.57100687     1.49500
O2005       O  0.97067288  0.64643382  0.57876832    -1.83500
O2006       O  0.97839618  0.69293959  0.50289350    -0.74200
O2007       O  0.51025277  0.70183581  0.64322952    -0.74000
O2008       O  0.90776418  0.64066808  0.61182043    -0.73500
O2009       O  0.51899850  0.71335295  0.54275660    -0.74200
O2010       O  0.91349009  0.65142233  0.54379114    -0.73800
O2011       O  0.96665059  0.66887963  0.67150448    -0.74400
O2012       O  0.95352862  0.57970355  0.61442981    -0.73700
O2013       O  0.54260795  0.67197217  0.59020475    -0.74500
O2014       O  0.93053991  0.59816097  0.65221096    -0.73900
O2015       O  0.51878608  0.62311675  0.57808572    -0.74400
O2016       O  0.96096376  0.59367943  0.51358336    -0.74300
O2017       O  0.94389693  0.62174355  0.48607328    -0.74100
C2018       C  0.50416559  0.71450898  0.51170309     0.77700
C2019       C  0.99171341  0.69288361  0.67343504     0.78200
C2020       C  0.89880719  0.64622054  0.57774530     0.77200
C2021       C  0.93648886  0.57769424  0.64447858     0.77600
C2022       C  0.54250565  0.64749657  0.58615236     0.78700
C2023       C  0.94864393  0.60001562  0.48394087     0.77700
Zn2024     Zn  0.54523782  0.84484488  0.42679154     1.49700
Zn2025     Zn  0.51205299  0.77382974  0.40917904     1.49400
Zn2026     Zn  0.57732313  0.81888419  0.37200693     1.49100
Zn2027     Zn  0.56831429  0.80363533  0.46947283     1.49500
O2028       O  0.55054536  0.81023195  0.41947756    -1.83500
O2029       O  0.50224769  0.83271858  0.41828959    -0.74200
O2030       O  0.51292608  0.75506924  0.35419884    -0.74000
O2031       O  0.59105427  0.85913012  0.34693211    -0.73500
O2032       O  0.97884205  0.78381196  0.40622508    -0.74200
O2033       O  0.56868125  0.87799343  0.38497514    -0.73800
O2034       O  0.55653355  0.78886791  0.32690472    -0.74400
O2035       O  0.60735476  0.80613852  0.45607607    -0.73700
O2036       O  0.50239590  0.74256035  0.45413869    -0.74500
O2037       O  0.61390655  0.81740087  0.38817375    -0.73900
O2038       O  0.54245778  0.76325195  0.49498242    -0.74400
O2039       O  0.57537859  0.83423834  0.51327215    -0.74300
O2040       O  0.55864186  0.86223649  0.48465081    -0.74100
C2041       C  0.97870303  0.80818520  0.41014263     0.77700
C2042       C  0.53186849  0.76452990  0.32450021     0.78200
C2043       C  0.58577035  0.88001993  0.35494455     0.77200
C2044       C  0.62249230  0.81183251  0.42251776     0.77600
C2045       C  0.51698064  0.74146758  0.48555010     0.78700
C2046       C  0.57044470  0.85586079  0.51490368     0.77700
Zn2047     Zn  0.75821307  0.52447537  0.58619828     1.49700
Zn2048     Zn  0.69445622  0.50219790  0.62987307     1.49400
Zn2049     Zn  0.72244484  0.55898045  0.57130971     1.49100
Zn2050     Zn  0.69901680  0.99357000  0.53130610     1.49500
O2051       O  0.71848470  0.51978008  0.57942289    -1.83500
O2052       O  0.76202963  0.50952920  0.64252936    -0.74200
O2053       O  0.67933873  0.52771333  0.65468031    -0.74000
O2054       O  0.76551750  0.59169344  0.57421556    -0.73500
O2055       O  0.71898167  0.99719985  0.67396634    -0.74200
O2056       O  0.79028568  0.56747194  0.58299045    -0.73800
O2057       O  0.69984510  0.56831956  0.61498205    -0.74400
O2058       O  0.69004455  0.51563272  0.48669050    -0.73700
O2059       O  0.65829359  0.96252575  0.61851173    -0.74500
O2060       O  0.70682982  0.56056401  0.51450521    -0.73900
O2061       O  0.66032455  0.95718278  0.54969577    -0.74400
O2062       O  0.72577479  0.97985069  0.50433459    -0.74300
O2063       O  0.76747999  0.50277233  0.54185504    -0.74100
C2064       C  0.74500191  0.00050211  0.67444652     0.77700
C2065       C  0.68367007  0.55341796  0.64583881     0.78200
C2066       C  0.78984538  0.59157317  0.57862692     0.77200
C2067       C  0.69476300  0.54216575  0.48441441     0.77600
C2068       C  0.64725032  0.94778844  0.58499460     0.78700
C2069       C  0.75237888  0.98588363  0.51176378     0.77700
Zn2070     Zn  0.77639347  0.92121670  0.46977755     1.49700
Zn2071     Zn  0.78298589  0.91247542  0.37190517     1.49400
Zn2072     Zn  0.80390573  0.97757866  0.40977119     1.49100
Zn2073     Zn  0.84075709  0.94330966  0.42724656     1.49500
O2074       O  0.80111642  0.93882655  0.41979884    -1.83500
O2075       O  0.74019190  0.88195144  0.45616615    -0.74200
O2076       O  0.77381149  0.93357563  0.32734920    -0.74000
O2077       O  0.78253717  0.98764909  0.45477312    -0.73500
O2078       O  0.74491140  0.87581643  0.38805434    -0.74200
O2079       O  0.76143175  0.94702034  0.49449808    -0.73800
O2080       O  0.78462195  0.97736087  0.35471720    -0.74400
O2081       O  0.87229850  0.98627191  0.42014255    -0.73700
O2082       O  0.80936027  0.89865469  0.34621151    -0.74500
O2083       O  0.84743322  0.51016162  0.40742175    -0.73900
O2084       O  0.85037877  0.92012252  0.38485402    -0.74400
O2085       O  0.84390050  0.92893405  0.48469398    -0.74300
O2086       O  0.79967355  0.91430810  0.51430204    -0.74100
C2087       C  0.73084621  0.86693201  0.42251499     0.77700
C2088       C  0.77468641  0.95843419  0.32503920     0.78200
C2089       C  0.76603675  0.97281307  0.48547845     0.77200
C2090       C  0.87176209  0.50998057  0.41202908     0.77600
C2091       C  0.83538743  0.90346574  0.35444544     0.78700
C2092       C  0.82586989  0.91806070  0.51542766     0.77700
C2093       C  0.67720587  0.78644452  0.42422647     0.80800
N2094       N  0.65087272  0.78608656  0.42392015    -0.77500
C2095       C  0.65064940  0.81208821  0.42341578     0.83300
N2096       N  0.67668983  0.83838373  0.42303287    -0.77400
C2097       C  0.70297498  0.83870712  0.42336527     0.83400
N2098       N  0.70326329  0.81275675  0.42384259    -0.79100
Zn2099     Zn  0.83639480  0.79109949  0.53179133     1.49700
Zn2100     Zn  0.84950923  0.79533869  0.63035791     1.49400
Zn2101     Zn  0.80804244  0.73167955  0.58652248     1.49100
Zn2102     Zn  0.87828720  0.76763588  0.57038843     1.49500
O2103       O  0.84303080  0.77149234  0.57966425    -1.83500
O2104       O  0.83926246  0.82981173  0.55026612    -0.74200
O2105       O  0.81832067  0.77128006  0.67348085    -0.74000
O2106       O  0.77747621  0.72241926  0.54176574    -0.73500
O2107       O  0.84770279  0.83242698  0.61879353    -0.74200
O2108       O  0.79562730  0.76459733  0.50559855    -0.73800
O2109       O  0.78803634  0.72804683  0.64222308    -0.74400
O2110       O  0.86837293  0.72487743  0.57225314    -0.73700
O2111       O  0.88984337  0.80877726  0.65580996    -0.74500
O2112       O  0.81945546  0.69985793  0.58333844    -0.73900
O2113       O  0.91021642  0.78967644  0.61377489    -0.74400
O2114       O  0.89550134  0.78348027  0.51384247    -0.74300
O2115       O  0.86712863  0.79994796  0.48638426    -0.74100
C2116       C  0.84369677  0.84325814  0.58535539     0.77700
C2117       C  0.79528026  0.74538979  0.67371983     0.78200
C2118       C  0.77534120  0.73777008  0.51247095     0.77200
C2119       C  0.84406623  0.70049639  0.57752457     0.77600
C2120       C  0.91132468  0.80479294  0.64580158     0.78700
C2121       C  0.88903221  0.79536321  0.48383959     0.77700
Zn2122     Zn  0.71577409  0.68622579  0.41070419     1.49700
Zn2123     Zn  0.68631730  0.71324009  0.47104167     1.49400
Zn2124     Zn  0.67122285  0.70648729  0.37337670     1.49100
Zn2125     Zn  0.64471916  0.64853363  0.42877300     1.49500
O2126       O  0.67954193  0.68851133  0.42116540    -1.83500
O2127       O  0.74706380  0.70770609  0.45558569    -0.74200
O2128       O  0.68308838  0.74933649  0.45746634    -0.74000
O2129       O  0.70121183  0.71540658  0.32812236    -0.73500
O2130       O  0.72723282  0.72843797  0.49554826    -0.74200
O2131       O  0.73473114  0.70552823  0.35562007    -0.73800
O2132       O  0.67259641  0.74453099  0.38929536    -0.74400
O2133       O  0.61147422  0.63882304  0.38691103    -0.73700
O2134       O  0.65602407  0.68965335  0.51560047    -0.74500
O2135       O  0.63096690  0.67983621  0.34833344    -0.73900
O2136       O  0.62770559  0.64476228  0.48707070    -0.74400
O2137       O  0.65653487  0.61747146  0.41996088    -0.74300
O2138       O  0.70549202  0.64303026  0.40776954    -0.74100
C2139       C  0.74857797  0.72406124  0.48634486     0.77700
C2140       C  0.67756990  0.75861590  0.42369502     0.78200
C2141       C  0.72539964  0.71486063  0.32573677     0.77200
C2142       C  0.60977940  0.65376742  0.35654227     0.77600
C2143       C  0.63431543  0.66301461  0.51741565     0.78700
C2144       C  0.68103765  0.61847488  0.41168018     0.77700
C2145       C  0.60411630  0.63496533  0.62622710     0.03700
C2146       C  0.62251638  0.64318651  0.59053176    -0.12400
C2147       C  0.61519835  0.65371659  0.55464684     0.01200
C2148       C  0.58935508  0.65577455  0.55414814    -0.10900
C2149       C  0.57065383  0.64733439  0.58918019     0.03700
C2150       C  0.57809623  0.63705772  0.62544401    -0.10400
H2151       H  0.64255666  0.64156241  0.59077348     0.09300
H2152       H  0.58355776  0.66358751  0.52615986     0.06800
H2153       H  0.56346250  0.63019903  0.65250874     0.06700
Zn2154     Zn  0.61954163  0.57498353  0.80224413     1.49700
Zn2155     Zn  0.63987683  0.63518518  0.75034628     1.49400
Zn2156     Zn  0.67984883  0.60358944  0.75079842     1.49100
Zn2157     Zn  0.61915758  0.57369414  0.70140427     1.49500
O2158       O  0.63948239  0.59701736  0.75122522    -1.83500
O2159       O  0.61283787  0.60122853  0.84173388    -0.74200
O2160       O  0.68302949  0.66943285  0.74905444    -0.74000
O2161       O  0.68710270  0.58420977  0.80010034    -0.73500
O2162       O  0.62068186  0.64043857  0.80359588    -0.74200
O2163       O  0.64375257  0.56040251  0.83365168    -0.73800
O2164       O  0.70981171  0.64675005  0.75099218    -0.74400
O2165       O  0.64338191  0.55833206  0.67132684    -0.73700
O2166       O  0.61990954  0.63885567  0.69717543    -0.74500
O2167       O  0.68798786  0.58553451  0.70054370    -0.73900
O2168       O  0.61196697  0.59904986  0.66024629    -0.74400
O2169       O  0.57944690  0.53860766  0.71780312    -0.74300
O2170       O  0.57955457  0.53951323  0.78774355    -0.74100
C2171       C  0.61302827  0.62569895  0.83782710     0.77700
C2172       C  0.70799765  0.67020605  0.74970187     0.78200
C2173       C  0.67076935  0.56694906  0.82916943     0.77200
C2174       C  0.67099498  0.56665868  0.67354352     0.77600
C2175       C  0.61205702  0.62355590  0.66341185     0.78700
C2176       C  0.56699574  0.52797820  0.75297228     0.77700
C2177       C  0.60510194  0.63731712  0.87480386     0.03700
C2178       C  0.57903206  0.63924462  0.87559676    -0.12400
C2179       C  0.57014573  0.64743101  0.91283080     0.01200
C2180       C  0.58808729  0.65431867  0.94863875    -0.10900
C2181       C  0.61434399  0.65306574  0.94765890     0.03700
C2182       C  0.62273723  0.64436152  0.91098471    -0.10400
H2183       H  0.56524637  0.63333718  0.84775922     0.09300
H2184       H  0.58188579  0.66100811  0.97738393     0.06800
H2185       H  0.64294108  0.64304223  0.91060714     0.06700
C2186       C  0.84298617  0.67122529  0.91894106     0.80800
N2187       N  0.86933399  0.67155834  0.91987235    -0.77500
C2188       C  0.86975327  0.64564326  0.92155446     0.83300
N2189       N  0.84365047  0.61932441  0.92285824    -0.77400
C2190       C  0.81731665  0.61893192  0.92162627     0.83400
N2191       N  0.81699423  0.64482601  0.91933926    -0.79100
Zn2192     Zn  0.98777303  0.64095622  0.87012096     1.49700
Zn2193     Zn  0.99644266  0.65441695  0.96853337     1.49400
Zn2194     Zn  0.96549714  0.68222400  0.91252325     1.49100
Zn2195     Zn  0.93111636  0.61178587  0.92934367     1.49500
O2196       O  0.97019390  0.64735362  0.92043302    -1.83500
O2197       O  0.52702240  0.64396700  0.88161232    -0.74200
O2198       O  0.51003899  0.69499734  0.99455665    -0.74000
O2199       O  0.98123806  0.70127321  0.85623056    -0.73500
O2200       O  0.53281925  0.65220151  0.95020549    -0.74200
O2201       O  0.99379766  0.67055130  0.82582465    -0.73800
O2202       O  0.98706414  0.71338575  0.95659369    -0.74400
O2203       O  0.89833045  0.62184115  0.92675283    -0.73700
O2204       O  0.97467766  0.62363939  0.01396485    -0.74500
O2205       O  0.92226854  0.67073004  0.91577020    -0.73900
O2206       O  0.92975329  0.59491213  0.98639035    -0.74400
O2207       O  0.92174778  0.57953075  0.88598359    -0.74300
O2208       O  0.96195266  0.60060717  0.84538122    -0.74100
C2209       C  0.54192177  0.64802425  0.91498887     0.77700
C2210       C  0.50395812  0.71541157  0.98673540     0.78200
C2211       C  0.99081917  0.69337830  0.82484532     0.77200
C2212       C  0.89826258  0.64609073  0.92143217     0.77600
C2213       C  0.94818990  0.60155241  0.01645985     0.78700
C2214       C  0.93649343  0.57871994  0.85453519     0.77700
Zn2215     Zn  0.51223536  0.77438695  0.08937795     1.49700
Zn2216     Zn  0.56853462  0.80414582  0.02872011     1.49400
Zn2217     Zn  0.54542003  0.84544477  0.07192128     1.49100
Zn2218     Zn  0.57768534  0.81923757  0.12610965     1.49500
O2219       O  0.55078316  0.81078708  0.07891802    -1.83500
O2220       O  0.50235874  0.74323746  0.04430763    -0.74200
O2221       O  0.57566113  0.83479149  0.98521145    -0.74000
O2222       O  0.50218305  0.83311355  0.07983919    -0.73500
O2223       O  0.54242173  0.76377702  0.00320785    -0.74200
O2224       O  0.97900628  0.78430137  0.09246990    -0.73800
O2225       O  0.55946084  0.86323196  0.01415432    -0.74400
O2226       O  0.59103484  0.85929062  0.15201579    -0.73700
O2227       O  0.60766096  0.80650036  0.04152295    -0.74500
O2228       O  0.56846518  0.87820830  0.11469793    -0.73900
O2229       O  0.61446535  0.81811013  0.10930135    -0.74400
O2230       O  0.55703622  0.78868854  0.17081438    -0.74300
O2231       O  0.51308294  0.75531015  0.14405790    -0.74100
C2232       C  0.51691033  0.74215440  0.01283834     0.77700
C2233       C  0.57111156  0.85665616  0.98376765     0.78200
C2234       C  0.97869281  0.80854672  0.08816138     0.77200
C2235       C  0.58553162  0.88010569  0.14463333     0.77600
C2236       C  0.62295247  0.81236408  0.07491411     0.78700
C2237       C  0.53226355  0.76444872  0.17338560     0.77700
Zn2238     Zn  0.74364160  0.53721322  0.97067091     1.49700
Zn2239     Zn  0.71547370  0.98032119  0.91097875     1.49400
Zn2240     Zn  0.67846803  0.51420593  0.92985275     1.49100
Zn2241     Zn  0.73600662  0.54512468  0.87355992     1.49500
O2242       O  0.71821606  0.51898527  0.92153379    -1.83500
O2243       O  0.75757576  0.51086110  0.99610084    -0.74200
O2244       O  0.67201663  0.94763627  0.90847152    -0.74000
O2245       O  0.67576556  0.52863658  0.98778231    -0.73500
O2246       O  0.73718270  0.97055661  0.95565053    -0.74200
O2247       O  0.72111829  0.54555014  0.01490540    -0.73800
O2248       O  0.64689306  0.97111993  0.92240893    -0.74400
O2249       O  0.70959914  0.55854535  0.84854280    -0.73700
O2250       O  0.73442445  0.98051258  0.85554072    -0.74500
O2251       O  0.66866240  0.53732004  0.88751385    -0.73900
O2252       O  0.74454731  0.52409507  0.82847707    -0.70200
O2253       O  0.77430963  0.58185706  0.88833032    -0.74300
O2254       O  0.78062161  0.57583789  0.95581762    -0.74100
C2255       C  0.75330051  0.98518469  0.98681052     0.77700
C2256       C  0.64758825  0.94757934  0.91344208     0.78200
C2257       C  0.69460613  0.54087233  0.01734184     0.77200
C2258       C  0.68360372  0.55372247  0.85684250     0.77600
C2259       C  0.74385898  0.99937251  0.82583281     0.78700
C2260       C  0.78933165  0.59071412  0.92197791     0.77700
Zn2261     Zn  0.78338488  0.91203412  0.12717184     1.49700
Zn2262     Zn  0.84218527  0.94394965  0.07326052     1.49400
Zn2263     Zn  0.77800493  0.92093693  0.02930018     1.49100
Zn2264     Zn  0.80431747  0.97713040  0.08962126     1.49500
O2265       O  0.80209942  0.93866021  0.07972781    -1.83500
O2266       O  0.80965930  0.89822468  0.15298328    -0.74200
O2267       O  0.84632137  0.92984916  0.01588429    -0.74000
O2268       O  0.74129886  0.88175459  0.04222216    -0.73500
O2269       O  0.85140769  0.92075846  0.11578250    -0.74200
O2270       O  0.74532135  0.87541877  0.11038172    -0.73800
O2271       O  0.80189792  0.91385379  0.98617108    -0.74400
O2272       O  0.78297388  0.98669176  0.04436927    -0.73700
O2273       O  0.87332462  0.98706278  0.08142690    -0.74500
O2274       O  0.76360286  0.94678782  0.00324487    -0.73900
O2275       O  0.84759250  0.51027752  0.09251548    -0.74400
O2276       O  0.78449890  0.97666853  0.14433838    -0.74300
O2277       O  0.77383068  0.93300409  0.17181029    -0.74100
C2278       C  0.83598593  0.90357518  0.14549234     0.77700
C2279       C  0.82833692  0.91827057  0.98525918     0.78200
C2280       C  0.73150544  0.86667698  0.07573930     0.77200
C2281       C  0.76737208  0.97223299  0.01277715     0.77600
C2282       C  0.87223002  0.51056389  0.08901947     0.78700
C2283       C  0.77450937  0.95778593  0.17401333     0.77700
C2284       C  0.67718970  0.78625905  0.07518475     0.80800
N2285       N  0.70338671  0.81245135  0.07527117    -0.77500
C2286       C  0.70341393  0.83856591  0.07458095     0.83300
N2287       N  0.67724793  0.83851995  0.07409632    -0.77400
C2288       C  0.65103654  0.81235006  0.07396524     0.83400
N2289       N  0.65099087  0.78619502  0.07462805    -0.79100
Zn2290     Zn  0.87734781  0.76624924  0.92836898     1.49700
Zn2291     Zn  0.83559343  0.78972881  0.96726148     1.49400
Zn2292     Zn  0.84931476  0.79432077  0.86859290     1.49100
Zn2293     Zn  0.80693004  0.73071819  0.91181616     1.49500
O2294       O  0.84224600  0.77026962  0.91913636    -1.83500
O2295       O  0.89434990  0.78160759  0.98539620    -0.74200
O2296       O  0.83904003  0.82866294  0.94894307    -0.74000
O2297       O  0.88940498  0.80706146  0.84285531    -0.73500
O2298       O  0.86619960  0.79846291  0.01270271    -0.74200
O2299       O  0.90975147  0.78837117  0.88538760    -0.73800
O2300       O  0.84834666  0.83177257  0.88057550    -0.74400
O2301       O  0.78718955  0.72794751  0.85639479    -0.73700
O2302       O  0.79482331  0.76329328  0.99361729    -0.74500
O2303       O  0.81826337  0.77097257  0.82529949    -0.73900
O2304       O  0.77645210  0.72115324  0.95719338    -0.74400
O2305       O  0.81802128  0.69866538  0.91321903    -0.74300
O2306       O  0.86687239  0.72350377  0.92500525    -0.74100
C2307       C  0.88797788  0.79370756  0.01535302     0.77700
C2308       C  0.84419319  0.84248562  0.91409874     0.78200
C2309       C  0.91088911  0.80319402  0.85307357     0.77200
C2310       C  0.79491067  0.74534564  0.82496682     0.77600
C2311       C  0.77449541  0.73646681  0.98682570     0.78700
C2312       C  0.84260447  0.69925008  0.91884404     0.77700
Zn2313     Zn  0.64423823  0.64787641  0.07285151     1.49700
Zn2314     Zn  0.67116446  0.70645335  0.12739123     1.49400
Zn2315     Zn  0.71532951  0.68523823  0.08954615     1.49100
Zn2316     Zn  0.68590011  0.71235984  0.02992077     1.49500
O2317       O  0.67921083  0.68786380  0.07986375    -1.83500
O2318       O  0.61166050  0.63838145  0.11561050    -0.74200
O2319       O  0.70156337  0.71569098  0.17194464    -0.74000
O2320       O  0.70483047  0.64189257  0.09183259    -0.73500
O2321       O  0.63112293  0.67981000  0.15342307    -0.74200
O2322       O  0.65581508  0.61653602  0.08034074    -0.73800
O2323       O  0.73434204  0.70449230  0.14475690    -0.74400
O2324       O  0.72652013  0.72721525  0.00461698    -0.73700
O2325       O  0.67236351  0.74449287  0.11106200    -0.74500
O2326       O  0.74653413  0.70662563  0.04422824    -0.73900
O2327       O  0.68279020  0.74861775  0.04289308    -0.74400
O2328       O  0.65549392  0.68860457  0.98608213    -0.74300
O2329       O  0.62647720  0.64414075  0.01533587    -0.74100
C2330       C  0.61006263  0.65353876  0.14582172     0.77700
C2331       C  0.72542497  0.71453516  0.17440106     0.78200
C2332       C  0.68031165  0.61739057  0.08793133     0.77200
C2333       C  0.74787736  0.72281353  0.01340194     0.77600
C2334       C  0.67731825  0.75826980  0.07641202     0.78700
C2335       C  0.63336134  0.66221345  0.98478735     0.77700
C2336       C  0.91712646  0.82151116  0.37300721     0.03700
C2337       C  0.89990963  0.81447446  0.40974967    -0.12400
C2338       C  0.90736629  0.80358476  0.44525124     0.01200
C2339       C  0.93267915  0.80041496  0.44382045    -0.10900
C2340       C  0.95040638  0.80805830  0.40785758     0.03700
C2341       C  0.94248264  0.81832367  0.37214239    -0.10400
H2342       H  0.88048661  0.81714477  0.41035555     0.09300
H2343       H  0.93926132  0.79275011  0.47119652     0.06800
H2344       H  0.95642033  0.82461923  0.34435991     0.06700
Zn2345     Zn  0.90059844  0.88259073  0.19930969     1.49700
Zn2346     Zn  0.90021604  0.88243755  0.30066802     1.49400
Zn2347     Zn  0.84019999  0.85283516  0.24983291     1.49100
Zn2348     Zn  0.88138731  0.82230692  0.24962142     1.49500
O2349       O  0.88069961  0.85995071  0.24985230    -1.83500
O2350       O  0.94033341  0.91783457  0.21523503    -0.74200
O2351       O  0.87558747  0.89714754  0.33130867    -0.74000
O2352       O  0.83216400  0.87159848  0.20048570    -0.73500
O2353       O  0.93993380  0.91781688  0.28524333    -0.74200
O2354       O  0.87615204  0.89753340  0.16911972    -0.73800
O2355       O  0.83195574  0.87177826  0.29903412    -0.74400
O2356       O  0.83876817  0.78727304  0.24990294    -0.73700
O2357       O  0.90763846  0.85683935  0.34080732    -0.74500
O2358       O  0.81130047  0.80929902  0.24983505    -0.73900
O2359       O  0.90168638  0.81847279  0.30210141    -0.74400
O2360       O  0.90117700  0.81824813  0.19658968    -0.74300
O2361       O  0.90784427  0.85702251  0.15845601    -0.74100
C2362       C  0.95263266  0.92886850  0.25034561     0.77700
C2363       C  0.84834348  0.88994800  0.32723918     0.78200
C2364       C  0.84879824  0.89005963  0.17274017     0.77200
C2365       C  0.81361310  0.78607126  0.24988764     0.77600
C2366       C  0.90871776  0.83301450  0.33648585     0.78700
C2367       C  0.90843588  0.83291936  0.16235284     0.77700
C2368       C  0.91672448  0.82130479  0.12566809     0.03700
C2369       C  0.89907269  0.81345564  0.08930210    -0.12400
C2370       C  0.90645770  0.80231081  0.05383698     0.01200
C2371       C  0.93208716  0.79965961  0.05499901    -0.10900
C2372       C  0.95025201  0.80817346  0.09053891     0.03700
C2373       C  0.94241371  0.81869792  0.12614874    -0.10400
H2374       H  0.87942581  0.81574843  0.08893666     0.09300
H2375       H  0.93859826  0.79179170  0.02768734     0.06800
H2376       H  0.95662622  0.82555235  0.15362510     0.06700
loop_ 
_geom_bond_atom_site_label_1 
_geom_bond_atom_site_label_2 
_geom_bond_distance 
_geom_bond_site_symmetry_2 
_ccdc_geom_bond_type 
C1            N2   1.356       .  A
C1            N6   1.354       .  A
C1          C282   1.460       .  S
N2            C3   1.359       .  A
C3            N4   1.358       .  A
C3          C754   1.462       .  S
N4            C5   1.356       .  A
C5            N6   1.354       .  A
C5          C477   1.452       .  S
C7            N8   1.358       .  A
C7           N12   1.351       .  A
C7          C501   1.456       .  S
N8            C9   1.361       .  A
C9           N10   1.360       .  A
C9          C200   1.459       .  S
N10          C11   1.357       .  A
C11          N12   1.351       .  A
C11         C306   1.455       .  S
C13          N14   1.352       .  A
C13          N18   1.357       .  A
C13         C359   1.456       .  S
N14          C15   1.352       .  A
C15          N16   1.357       .  A
C15         C549   1.456       .  S
N16          C17   1.359       .  A
C17          N18   1.359       .  A
C17         C583   1.456       .  S
C19          N20   1.354       .  A
C19          N24   1.357       .  A
C19         C528   1.461       .  S
N20          C21   1.354       .  A
C21          N22   1.359       .  A
C21         C335   1.464       .  S
N22          C23   1.360       .  A
C23          N24   1.357       .  A
C23         C390   1.457       .  S
C25          N26   1.360       .  A
C25          N30   1.358       .  A
C25        C1309   1.456       .  S
N26          C27   1.358   1_455  A
C27          N28   1.353       .  A
C27        C1425   1.458       .  S
N28          C29   1.354       .  A
C29          N30   1.356   1_655  A
C29        C1617   1.460       .  S
C31          N32   1.361       .  A
C31          N36   1.359       .  A
C31          C75   1.459       .  S
N32          C33   1.358       .  A
C33          N34   1.351       .  A
C33         C455   1.457       .  S
N34          C35   1.351       .  A
C35          N36   1.356       .  A
C35         C260   1.454       .  S
C37          N38   1.356       .  A
C37         N636   1.357       .  A
C37         C202   1.456       .  S
N38        C1227   1.356   1_455  A
C39          N40   1.357       .  A
C39        N1226   1.356       .  A
C39         C580   1.457       .  S
N40        C1823   1.357       .  A
C41          N42   1.356       .  A
C41        N1822   1.357   1_445  A
C41          C78   1.457       .  S
N42         C631   1.357   1_545  A
C43          N48   1.357       .  A
C43        N1826   1.359       .  A
C43         C751   1.466       .  S
N44          C45   1.357       .  A
N44        C1825   1.359   1_445  A
C45         N640   1.356   1_545  A
C45         C394   1.458       .  S
N46          C47   1.356       .  A
N46         C639   1.356       .  A
C47        N1236   1.356   1_455  A
C47        C1305   1.455       .  S
N48        C1235   1.356       .  A
C49          C76   1.474       .  S
C49          C50   1.406       .  A
C49          C54   1.405       .  A
C50          C51   1.407       .  A
C50          H55   1.084       .  S
C51         C431   1.483       .  S
C51          C52   1.404       .  A
C52          C53   1.397       .  A
C52          H56   1.084       .  S
C53         C500   1.467       .  S
C53          C54   1.405       .  A
C54          H57   1.084       .  S
Zn58         O62   1.941       .  S
Zn58         O63   1.992       .  S
Zn58         O67   2.003       .  S
Zn58         O74   2.007       .  S
Zn59         O62   1.975   1_655  S
Zn59         O66   2.043       .  S
Zn59       O1252   2.043       .  S
Zn59       O1258   2.045       .  S
Zn60         O62   1.958       .  S
Zn60         O65   2.034       .  S
Zn60         O68   2.021   1_455  S
Zn60         O71   2.018       .  S
Zn61         O62   1.959       .  S
Zn61         O69   2.015       .  S
Zn61         O72   2.013   1_455  S
Zn61         O73   2.037       .  S
O63          C75   1.271       .  A
O64       Zn1247   2.043       .  S
O64          C76   1.276       .  A
O65          C77   1.274       .  A
O66          C75   1.275   1_655  A
O67          C77   1.271       .  A
O68        C1264   1.274       .  A
O69          C78   1.273       .  A
O70       Zn1247   2.045       .  S
O70          C79   1.277       .  A
O71          C78   1.274       .  A
O72        C1267   1.273       .  A
O73          C80   1.274       .  A
O74          C80   1.272       .  A
C76        O1256   1.274       .  A
C77         C548   1.471       .  S
C79          C81   1.472       .  S
C79        O1260   1.273       .  A
C80         C360   1.472       .  S
C81          C82   1.404       .  A
C81          C86   1.407       .  A
C82          C83   1.400       .  A
C82          H87   1.085       .  S
C83         C241   1.461       .  S
C83          C84   1.397       .  A
C84          C85   1.398       .  A
C84          H88   1.085       .  S
C85         C308   1.465       .  S
C85          C86   1.407       .  A
C86          H89   1.083       .  S
C90         C118   1.473       .  S
C90          C91   1.406       .  A
C90          C95   1.403       .  A
C91          C92   1.413       .  A
C91          H96   1.083       .  S
C92         C286   1.483       .  S
C92          C93   1.403       .  A
C93          C94   1.397       .  A
C93          H97   1.084       .  S
C94         C264   1.461       .  S
C94          C95   1.399       .  A
C95          H98   1.084       .  S
Zn99       O1291   1.972   1_455  S
Zn99        O104   2.054       .  S
Zn99        O108   2.047       .  S
Zn99        O115   2.044       .  S
Zn100       O103   1.948       .  S
Zn100       O105   2.009       .  S
Zn100       O111   2.023       .  S
Zn100      O1295   2.011       .  S
Zn101       O103   1.948       .  S
Zn101       O109   2.011       .  S
Zn101       O112   2.025       .  S
Zn101      O1294   2.015       .  S
Zn102       O103   1.946       .  S
Zn102       O110   2.007       .  S
Zn102       O113   2.012       .  S
Zn102       O114   1.983       .  S
O103      Zn1287   1.972       .  S
O104        C116   1.278       .  A
O105        C117   1.272       .  A
O106      Zn1289   2.015   1_455  S
O106        C118   1.274       .  A
O107      Zn1288   2.011   1_455  S
O107        C116   1.273       .  A
O108        C118   1.277       .  A
O109        C117   1.272       .  A
O110        C119   1.270       .  A
O111        C120   1.272       .  A
O112        C119   1.272       .  A
O113        C120   1.271       .  A
O114        C121   1.270       .  A
O115       C1309   1.276       .  A
C116        C122   1.474       .  S
C117       C1235   1.455       .  S
C119        C338   1.459       .  S
C120        C527   1.460       .  S
C121       C1213   1.456       .  S
C121       O1303   1.276       .  A
C122        C123   1.404       .  A
C122        C127   1.408       .  A
C123        C124   1.400       .  A
C123        H128   1.085       .  S
C124        C451   1.461       .  S
C124        C125   1.397       .  A
C125        C126   1.398       .  A
C125        H129   1.085       .  S
C126        C474   1.467       .  S
C126        C127   1.409       .  A
C127        H130   1.083       .  S
C131        C161   1.488       .  S
C131        C132   1.410       .  A
C131        C136   1.409       .  A
C132        C133   1.413       .  A
C132        H137   1.083       .  S
C133        C334   1.483       .  S
C133        C134   1.403       .  A
C134        C135   1.395       .  A
C134        H138   1.084       .  S
C135        C310   1.463       .  S
C135        C136   1.397       .  A
C136        H139   1.084       .  S
Zn140       O144   1.953   1_545  S
Zn140       O145   2.005       .  S
Zn140       O149   2.013       .  S
Zn140       O156   2.018       .  S
Zn141       O738   1.972       .  S
Zn141       O146   2.058       .  S
Zn141       O148   2.023       .  S
Zn141       O152   2.057       .  S
Zn142       O144   1.950       .  S
Zn142       O147   2.021   1_565  S
Zn142       O153   2.011       .  S
Zn142       O744   1.992       .  S
Zn143       O144   1.943       .  S
Zn143       O151   1.997       .  S
Zn143       O155   2.019   1_565  S
Zn143       O748   1.999       .  S
O144       Zn735   1.972       .  S
O145        C157   1.273   1_545  A
O146        C158   1.279       .  A
O147        C159   1.272       .  A
O148        C751   1.275       .  A
O149        C159   1.273       .  A
O150       Zn736   1.992       .  S
O150        C158   1.273       .  A
O151        C160   1.271       .  A
O152        C161   1.279       .  A
O153        C160   1.272       .  A
O154       Zn737   1.999       .  S
O154        C161   1.274       .  A
O155        C162   1.271       .  A
O156        C162   1.272       .  A
C157        C637   1.466       .  S
C157        O742   1.275       .  A
C158        C163   1.488       .  S
C159        C432   1.469       .  S
C160        C597   1.462       .  S
C162        C239   1.461       .  S
C163        C164   1.408       .  A
C163        C168   1.410       .  A
C164        C165   1.395       .  A
C164        H169   1.084       .  S
C165        C497   1.462       .  S
C165        C166   1.394       .  A
C166        C167   1.403       .  A
C166        H170   1.084       .  S
C167        C526   1.482       .  S
C167        C168   1.414       .  A
C168        H171   1.083       .  S
C172        C201   1.473       .  S
C172        C173   1.404       .  A
C172        C177   1.407       .  A
C173        C174   1.400       .  A
C173        H178   1.085       .  S
C174        C475   1.463       .  S
C174        C175   1.398       .  A
C175        C176   1.399       .  A
C175        H179   1.085       .  S
C176        C550   1.468       .  S
C176        C177   1.408       .  A
C177        H180   1.084       .  S
Zn181       O185   1.941       .  S
Zn181       O186   2.004       .  S
Zn181       O190   1.991       .  S
Zn181       O197   2.007       .  S
Zn182       O185   1.959       .  S
Zn182       O187   2.020       .  S
Zn182       O189   2.036       .  S
Zn182       O193   2.016       .  S
Zn183       O185   1.976       .  S
Zn183       O188   2.045       .  S
Zn183       O785   2.046       .  S
Zn183       O788   2.043       .  S
Zn184       O185   1.959       .  S
Zn184       O192   2.018       .  S
Zn184       O195   2.014       .  S
Zn184       O196   2.039       .  S
O186        C198   1.271       .  A
O187        C793   1.274       .  A
O188        C200   1.275       .  A
O189        C198   1.274       .  A
O190        C200   1.271       .  A
O191       Zn777   2.046       .  S
O191        C199   1.276       .  A
O192        C795   1.274       .  A
O193        C202   1.274       .  A
O194       Zn777   2.043       .  S
O194        C201   1.276       .  A
O195        C202   1.273       .  A
O196        C203   1.274       .  A
O197        C203   1.271       .  A
C198        C261   1.471       .  S
C199        C204   1.474       .  S
C199        O781   1.274   1_545  A
C201        O786   1.274   1_545  A
C203        C453   1.473       .  S
C204        C205   1.406       .  A
C204        C209   1.405       .  A
C205        C206   1.406       .  A
C205        H210   1.084       .  S
C206        C362   1.467       .  S
C206        C207   1.397       .  A
C207        C208   1.403       .  A
C207        H211   1.085       .  S
C208        C285   1.481       .  S
C208        C209   1.406       .  A
C209        H212   1.084       .  S
C213        N214   1.358       .  A
C213        N218   1.360       .  A
C213        C337   1.469       .  S
N214        C215   1.357       .  A
C215        N216   1.358       .  A
C215        C284   1.467       .  S
N216        C217   1.357       .  A
C217        N218   1.359       .  A
C217        C238   1.462       .  S
Zn219       O223   1.961       .  S
Zn219       O224   2.011       .  S
Zn219       O228   2.020       .  S
Zn219       O235   2.004       .  S
Zn220      O1411   1.970   1_455  S
Zn220       O225   2.020       .  S
Zn220       O227   2.031       .  S
Zn220       O231   2.036       .  S
Zn221       O223   1.952       .  S
Zn221       O226   2.020       .  S
Zn221       O229   2.003       .  S
Zn221       O232   2.013       .  S
Zn222       O223   1.967       .  S
Zn222       O230   2.022       .  S
Zn222       O234   2.024       .  S
Zn222      O1421   2.012       .  S
O223      Zn1408   1.970       .  S
O224       C1424   1.271       .  A
O225       C1425   1.272   1_455  A
O226        C238   1.272       .  A
O227        C236   1.275       .  A
O228        C238   1.272       .  A
O229        C237   1.273       .  A
O230        C239   1.271       .  A
O231        C240   1.275       .  A
O232        C239   1.271       .  A
O233      Zn1410   2.012   1_455  S
O233        C240   1.272       .  A
O234        C241   1.275       .  A
O235        C241   1.272       .  A
C236        C263   1.472       .  S
C236       O1412   1.271   1_455  A
C237       C1215   1.458       .  S
C237       O1413   1.272       .  A
C240        C367   1.468       .  S
Zn242       O246   1.965       .  S
Zn242       O247   2.008       .  S
Zn242       O251   2.030       .  S
Zn242       O258   2.018       .  S
Zn243       O246   1.969       .  S
Zn243       O248   2.016       .  S
Zn243       O254   2.033       .  S
Zn243      O1438   2.036   1_455  S
Zn244       O246   1.947       .  S
Zn244       O249   2.006       .  S
Zn244       O252   1.993       .  S
Zn244       O255   2.006       .  S
Zn245       O246   1.958       .  S
Zn245       O253   2.008       .  S
Zn245       O256   2.009       .  S
Zn245       O257   2.006       .  S
O247       C1447   1.273   1_455  A
O248        C260   1.272       .  A
O249        C261   1.271       .  A
O250      Zn1431   2.036       .  S
O250        C259   1.276       .  A
O251        C261   1.272       .  A
O252        C260   1.271       .  A
O253        C262   1.271       .  A
O254        C263   1.275       .  A
O255        C262   1.271       .  A
O256        C263   1.271       .  A
O257        C264   1.272       .  A
O258        C264   1.274       .  A
C259        C558   1.466       .  S
C259       O1435   1.273       .  A
C262        C313   1.454       .  S
Zn265       O269   1.962       .  S
Zn265       O270   2.008       .  S
Zn265       O274   2.008       .  S
Zn265       O281   2.010       .  S
Zn266       O269   1.957       .  S
Zn266       O271   2.009       .  S
Zn266       O867   2.001   1_545  S
Zn266       O871   2.003   1_545  S
Zn267       O269   1.959       .  S
Zn267       O272   2.018       .  S
Zn267       O275   2.028       .  S
Zn267       O278   2.005       .  S
Zn268       O863   1.961       .  S
Zn268       O279   2.033       .  S
Zn268       O280   2.040       .  S
Zn268       O870   2.025       .  S
O269       Zn862   1.961   1_545  S
O270        C876   1.272       .  A
O271        C283   1.270       .  A
O272        C284   1.273       .  A
O273       Zn860   2.001       .  S
O273        C282   1.272       .  A
O274        C284   1.272       .  A
O275        C283   1.272       .  A
O276       Zn862   2.025   1_545  S
O276        C285   1.275       .  A
O277       Zn860   2.003       .  S
O277        C286   1.271       .  A
O278        C285   1.274       .  A
O279        C286   1.278       .  A
O280        C287   1.275       .  A
O281        C881   1.270   1_545  A
C282        O864   1.272       .  A
C283        C392   1.462       .  S
C287        C307   1.465       .  S
C287        O875   1.270       .  A
Zn288       O292   1.960       .  S
Zn288       O293   2.007       .  S
Zn288       O297   2.015       .  S
Zn288       O304   2.012       .  S
Zn289       O292   1.948       .  S
Zn289       O294   1.995       .  S
Zn289       O296   2.003       .  S
Zn289       O300   2.010       .  S
Zn290       O292   1.971       .  S
Zn290       O295   2.034       .  S
Zn290       O298   2.020       .  S
Zn290       O895   2.032       .  S
Zn291       O292   1.964       .  S
Zn291       O299   2.010       .  S
Zn291       O302   2.031       .  S
Zn291       O303   2.017       .  S
O293        C305   1.271       .  A
O294        C306   1.271       .  A
O295        C307   1.274       .  A
O296        C305   1.270       .  A
O297        C307   1.271       .  A
O298        C306   1.272       .  A
O299        C902   1.273       .  A
O300        C309   1.271       .  A
O301       Zn884   2.032   1_545  S
O301        C308   1.276       .  A
O302        C309   1.272       .  A
O303        C310   1.274       .  A
O304        C310   1.273       .  A
C305        C315   1.453       .  S
C308        O893   1.273   1_545  A
C309        C581   1.472       .  S
C311        N312   1.357       .  A
C311        N316   1.356       .  A
C311        C358   1.455       .  S
N312        C313   1.357       .  A
C313        N314   1.355       .  A
N314        C315   1.355       .  A
C315        N316   1.356       .  A
Zn317       O321   1.961       .  S
Zn317       O322   2.027       .  S
Zn317       O326   2.035       .  S
Zn317       O333   2.027       .  S
Zn318       O321   1.959       .  S
Zn318       O323   2.009       .  S
Zn318       O325   2.010       .  S
Zn318       O329   2.015       .  S
Zn319       O321   1.961       .  S
Zn319       O324   2.006       .  S
Zn319       O327   2.017       .  S
Zn319       O330   2.019       .  S
Zn320       O321   1.959       .  S
Zn320       O328   2.014       .  S
Zn320       O331   2.017       .  S
Zn320       O332   1.997       .  S
O322        C334   1.277       .  A
O323        C335   1.274       .  A
O324        C336   1.270       .  A
O325        C334   1.272       .  A
O326        C336   1.274       .  A
O327        C335   1.273       .  A
O328        C337   1.272       .  A
O329        C338   1.271       .  A
O330        C337   1.274       .  A
O331        C338   1.271       .  A
O332        C339   1.273       .  A
O333        C339   1.275       .  A
C336        C357   1.462       .  S
C339        C556   1.480       .  S
Zn340       O344   1.970       .  S
Zn340       O345   2.028       .  S
Zn340       O349   2.017       .  S
Zn340       O356   2.031       .  S
Zn341       O344   1.961       .  S
Zn341       O346   2.013       .  S
Zn341       O348   2.015       .  S
Zn341       O352   2.013       .  S
Zn342       O344   1.948       .  S
Zn342       O347   1.997       .  S
Zn342       O350   2.006       .  S
Zn342       O353   2.003       .  S
Zn343       O344   1.966       .  S
Zn343       O351   2.035       .  S
Zn343       O354   2.024       .  S
Zn343       O355   2.013       .  S
O345        C357   1.273       .  A
O346        C358   1.271       .  A
O347        C359   1.271       .  A
O348        C357   1.271       .  A
O349        C359   1.272       .  A
O350        C358   1.271       .  A
O351        C360   1.273       .  A
O352        C361   1.273       .  A
O353        C360   1.271       .  A
O354        C361   1.275       .  A
O355        C362   1.273       .  A
O356        C362   1.275       .  A
C361        C365   1.464       .  S
C363        C393   1.476       .  S
C363        C364   1.406       .  A
C363        C368   1.408       .  A
C364        C365   1.402       .  A
C364        H369   1.084       .  S
C365        C366   1.397       .  A
C366        C367   1.397       .  A
C366        H370   1.085       .  S
C367        C368   1.408       .  A
C368        H371   1.084       .  S
Zn372       O376   1.959       .  S
Zn372       O377   2.009       .  S
Zn372       O381   2.029       .  S
Zn372       O388   2.018       .  S
Zn373       O376   1.973       .  S
Zn373       O378   2.043       .  S
Zn373       O380   2.053       .  S
Zn373       O384   2.047       .  S
Zn374       O376   1.945       .  S
Zn374       O379   2.004       .  S
Zn374       O382   1.985       .  S
Zn374       O385   2.004       .  S
Zn375       O376   1.955       .  S
Zn375       O383   2.034       .  S
Zn375       O386   2.025       .  S
Zn375       O387   2.016       .  S
O377        C389   1.273       .  A
O378        C390   1.276       .  A
O379        C391   1.272       .  A
O380        C389   1.277       .  A
O381        C391   1.273       .  A
O382        C390   1.269       .  A
O383        C392   1.273       .  A
O384        C393   1.277       .  A
O385        C392   1.269       .  A
O386        C393   1.275       .  A
O387        C394   1.273       .  A
O388        C394   1.273       .  A
C389        C395   1.473       .  S
C391        C476   1.469       .  S
C395        C396   1.405       .  A
C395        C400   1.403       .  A
C396        C397   1.413       .  A
C396        H401   1.084       .  S
C397        C427   1.481       .  S
C397        C398   1.402       .  A
C398        C399   1.396       .  A
C398        H402   1.084       .  S
C399        C553   1.460       .  S
C399        C400   1.399       .  A
C400        H403   1.084       .  S
C404        N405   1.358       .  A
C404        N409   1.357       .  A
C404        C530   1.466       .  S
N405        C406   1.359       .  A
C406        N407   1.358       .  A
C406        C430   1.467       .  S
N407        C408   1.357       .  A
C408        N409   1.356       .  A
C408        C478   1.455       .  S
Zn410       O414   1.953       .  S
Zn410       O419   1.995       .  S
Zn410       O426   1.997       .  S
Zn410      O1603   1.997       .  S
Zn411       O414   1.961       .  S
Zn411       O422   2.029   1_556  S
Zn411      O1604   2.033       .  S
Zn411      O1606   2.032       .  S
Zn412       O414   1.962       .  S
Zn412       O417   2.015       .  S
Zn412       O420   2.007       .  S
Zn412       O423   2.012       .  S
Zn413       O414   1.959       .  S
Zn413       O421   2.016       .  S
Zn413       O424   2.007       .  S
Zn413       O425   2.033       .  S
O415      Zn1598   1.997   1_455  S
O415        C427   1.270       .  A
O416      Zn1599   2.033   1_455  S
O416        C428   1.274       .  A
O417        C429   1.272       .  A
O418      Zn1599   2.032   1_455  S
O418        C427   1.277       .  A
O419        C429   1.271       .  A
O420       C1616   1.270       .  A
O421        C430   1.273       .  A
O422        C431   1.275       .  A
O423        C430   1.273       .  A
O424        C431   1.274   1_556  A
O425        C432   1.274       .  A
O426        C432   1.270       .  A
C428        C450   1.461   1_556  S
C428       O1608   1.270   1_455  A
C429       C1217   1.460       .  S
Zn433       O437   1.971       .  S
Zn433       O438   2.027       .  S
Zn433       O449   2.019       .  S
Zn433      O1630   2.034   1_455  S
Zn434       O437   1.960       .  S
Zn434       O439   2.003   1_554  S
Zn434       O441   2.010       .  S
Zn434       O445   2.014       .  S
Zn435       O437   1.968       .  S
Zn435       O440   2.015       .  S
Zn435       O443   2.026       .  S
Zn435       O446   2.035       .  S
Zn436       O437   1.948       .  S
Zn436       O444   2.010       .  S
Zn436       O447   2.010       .  S
Zn436       O448   1.998       .  S
O438        C450   1.273       .  A
O439        C451   1.272       .  A
O440       C1640   1.273   1_455  A
O441        C450   1.270       .  A
O442      Zn1621   2.034       .  S
O442        C452   1.275       .  A
O443        C451   1.275   1_554  A
O444        C453   1.272       .  A
O445        C454   1.271       .  A
O446        C453   1.273       .  A
O447        C454   1.271       .  A
O448        C455   1.272       .  A
O449        C455   1.272       .  A
C452        C590   1.467       .  S
C452       O1628   1.273       .  A
C454        C506   1.457       .  S
Zn456       O460   1.960       .  S
Zn456       O461   2.014       .  S
Zn456       O465   2.011   1_556  S
Zn456       O472   2.015       .  S
Zn457      O1054   1.969       .  S
Zn457       O462   2.031       .  S
Zn457       O464   2.034       .  S
Zn457       O468   2.019       .  S
Zn458       O460   1.966       .  S
Zn458       O463   2.024       .  S
Zn458       O469   2.036       .  S
Zn458      O1060   2.016   1_545  S
Zn459       O460   1.944       .  S
Zn459       O467   1.991       .  S
Zn459       O470   1.984       .  S
Zn459       O471   2.000       .  S
O460      Zn1051   1.969   1_545  S
O461       C1067   1.272   1_545  A
O462        C474   1.275       .  A
O463        C475   1.275   1_556  A
O464        C473   1.275       .  A
O465        C475   1.273       .  A
O466      Zn1052   2.016       .  S
O466        C474   1.273       .  A
O467        C476   1.269       .  A
O468        C477   1.272       .  A
O469        C476   1.273       .  A
O470       C1071   1.269   1_545  A
O471        C478   1.270       .  A
O472        C478   1.271       .  A
C473        C499   1.473   1_556  S
C473       O1055   1.272       .  A
C477       O1064   1.269       .  A
Zn479       O483   1.949       .  S
Zn479       O484   2.010       .  S
Zn479       O488   2.007       .  S
Zn479       O495   1.999       .  S
Zn480       O483   1.966       .  S
Zn480       O485   2.021       .  S
Zn480       O487   2.027       .  S
Zn480       O491   2.014       .  S
Zn481       O483   1.960       .  S
Zn481       O486   2.011       .  S
Zn481       O489   2.004   1_554  S
Zn481       O492   2.017       .  S
Zn482       O483   1.968       .  S
Zn482       O490   2.029       .  S
Zn482       O494   2.018       .  S
Zn482      O1087   2.032       .  S
O484        C496   1.272       .  A
O485        C497   1.274   1_554  A
O486        C498   1.271       .  A
O487        C496   1.272       .  A
O488        C498   1.271       .  A
O489        C497   1.272       .  A
O490        C499   1.274       .  A
O491       C1094   1.273       .  A
O492        C499   1.272       .  A
O493      Zn1076   2.032   1_545  S
O493        C500   1.275       .  A
O494        C501   1.272       .  A
O495        C501   1.272       .  A
C496        C582   1.471       .  S
C498        C504   1.456       .  S
C500       O1085   1.273   1_545  A
C502        N503   1.356       .  A
C502        N507   1.357       .  A
C502        C552   1.458       .  S
N503        C504   1.356       .  A
C504        N505   1.356       .  A
N505        C506   1.356       .  A
C506        N507   1.358       .  A
Zn508       O512   1.957       .  S
Zn508       O513   2.004       .  S
Zn508       O517   2.020       .  S
Zn508       O524   2.006       .  S
Zn509       O512   1.960       .  S
Zn509       O514   2.026       .  S
Zn509       O516   2.027   1_556  S
Zn509       O520   2.036       .  S
Zn510       O512   1.959       .  S
Zn510       O515   2.012       .  S
Zn510       O518   2.007       .  S
Zn510       O521   2.003       .  S
Zn511       O512   1.962       .  S
Zn511       O519   2.013       .  S
Zn511       O522   2.011       .  S
Zn511       O523   2.017       .  S
O513        C525   1.274   1_556  A
O514        C526   1.277       .  A
O515        C527   1.271       .  A
O516        C525   1.275       .  A
O517        C527   1.271       .  A
O518        C526   1.272       .  A
O519        C528   1.273       .  A
O520        C529   1.274       .  A
O521        C528   1.272       .  A
O522        C529   1.271       .  A
O523        C530   1.273       .  A
O524        C530   1.272       .  A
C525        C588   1.482       .  S
C529        C551   1.463   1_556  S
Zn531       O535   1.967       .  S
Zn531       O536   2.029       .  S
Zn531       O540   2.013       .  S
Zn531       O547   2.019       .  S
Zn532       O535   1.950       .  S
Zn532       O537   1.995       .  S
Zn532       O539   2.007       .  S
Zn532       O543   2.015       .  S
Zn533       O535   1.971       .  S
Zn533       O538   2.035       .  S
Zn533       O541   2.021       .  S
Zn533       O544   2.033       .  S
Zn534       O535   1.959       .  S
Zn534       O542   2.012       .  S
Zn534       O545   2.012       .  S
Zn534       O546   2.003   1_554  S
O536        C548   1.272       .  A
O537        C549   1.272       .  A
O538        C550   1.275       .  A
O539        C548   1.271       .  A
O540        C550   1.273       .  A
O541        C549   1.273       .  A
O542        C551   1.270       .  A
O543        C552   1.271       .  A
O544        C551   1.274       .  A
O545        C552   1.271       .  A
O546        C553   1.272       .  A
O547        C553   1.274   1_554  A
C554        C584   1.473       .  S
C554        C555   1.405       .  A
C554        C559   1.406       .  A
C555        C556   1.406       .  A
C555        H560   1.084       .  S
C556        C557   1.404       .  A
C557        C558   1.396       .  A
C557        H561   1.085       .  S
C558        C559   1.405       .  A
C559        H562   1.084       .  S
Zn563       O567   1.956       .  S
Zn563       O568   2.017       .  S
Zn563       O572   2.033       .  S
Zn563       O579   2.024       .  S
Zn564       O567   1.956       .  S
Zn564       O569   2.036       .  S
Zn564       O571   2.015       .  S
Zn564       O575   2.019       .  S
Zn565       O567   1.942       .  S
Zn565       O570   2.004       .  S
Zn565       O573   2.007       .  S
Zn565       O576   1.989       .  S
Zn566       O567   1.974       .  S
Zn566       O574   2.039       .  S
Zn566       O577   2.042       .  S
Zn566       O578   2.042       .  S
O568        C580   1.274       .  A
O569        C581   1.274       .  A
O570        C582   1.271       .  A
O571        C580   1.274       .  A
O572        C582   1.274       .  A
O573        C581   1.271       .  A
O574        C583   1.275       .  A
O575        C584   1.274       .  A
O576        C583   1.271       .  A
O577        C584   1.276       .  A
O578        C585   1.276       .  A
O579        C585   1.274       .  A
C585        C586   1.475       .  S
C586        C587   1.406       .  A
C586        C591   1.406       .  A
C587        C588   1.407       .  A
C587        H592   1.084       .  S
C588        C589   1.404       .  A
C589        C590   1.397       .  A
C589        H593   1.085       .  S
C590        C591   1.405       .  A
C591        H594   1.084       .  S
C595        N596   1.356       .  A
C595        N600   1.354       .  A
C595        C876   1.460   1_565  S
N596        C597   1.359       .  A
C597        N598   1.358       .  A
N598        C599   1.356       .  A
C599        N600   1.354       .  A
C599       C1071   1.452       .  S
C601        N602   1.358       .  A
C601        N606   1.351       .  A
C601       C1095   1.456       .  S
N602        C603   1.361       .  A
C603        N604   1.360       .  A
C603        C794   1.459       .  S
N604        C605   1.357       .  A
C605        N606   1.351       .  A
C605        C900   1.455       .  S
C607        N608   1.352       .  A
C607        N612   1.357       .  A
C607        C953   1.456       .  S
N608        C609   1.352       .  A
C609        N610   1.357       .  A
C609       C1143   1.456       .  S
N610        C611   1.359       .  A
C611        N612   1.359       .  A
C611       C1177   1.456       .  S
C613        N614   1.354       .  A
C613        N618   1.357       .  A
C613       C1122   1.461       .  S
N614        C615   1.354       .  A
C615        N616   1.359       .  A
C615        C929   1.464       .  S
N616        C617   1.360       .  A
C617        N618   1.357       .  A
C617        C984   1.457       .  S
C619        N620   1.360       .  A
C619        N624   1.358       .  A
C619       C1903   1.456       .  S
N620        C621   1.358   1_455  A
C621        N622   1.353       .  A
C621       C2019   1.458       .  S
N622        C623   1.354       .  A
C623        N624   1.356   1_655  A
C623       C2211   1.460       .  S
C625        N626   1.361       .  A
C625        N630   1.359       .  A
C625        C669   1.459       .  S
N626        C627   1.358       .  A
C627        N628   1.351       .  A
C627       C1049   1.457       .  S
N628        C629   1.351       .  A
C629        N630   1.356       .  A
C629        C854   1.454       .  S
C631        N632   1.356       .  A
C631        C796   1.456       .  S
N632       C1821   1.356   1_455  A
C633       N1820   1.356       .  A
C633        N634   1.357       .  A
C633       C1174   1.457       .  S
N634       C1229   1.357   1_565  A
C635       N1228   1.357   1_455  A
C635        N636   1.356       .  A
C635        C672   1.457       .  S
C637       N1232   1.359   1_565  A
C637        N642   1.357       .  A
N638       C1231   1.359   1_455  A
N638        C639   1.357       .  A
C639        C988   1.458       .  S
N640        C641   1.356       .  A
C641       N1830   1.356   1_455  A
C641       C1899   1.455       .  S
N642       C1829   1.356       .  A
C643        C670   1.474       .  S
C643        C644   1.406       .  A
C643        C648   1.405       .  A
C644        C645   1.407       .  A
C644        H649   1.084       .  S
C645       C1025   1.483       .  S
C645        C646   1.404       .  A
C646        C647   1.397       .  A
C646        H650   1.084       .  S
C647       C1094   1.467       .  S
C647        C648   1.405       .  A
C648        H651   1.084       .  S
Zn652       O656   1.941       .  S
Zn652       O657   1.992       .  S
Zn652       O661   2.003       .  S
Zn652       O668   2.007       .  S
Zn653       O656   1.975   1_655  S
Zn653      O1846   2.043       .  S
Zn653       O660   2.043       .  S
Zn653      O1852   2.045       .  S
Zn654       O656   1.958       .  S
Zn654       O659   2.034       .  S
Zn654       O662   2.021   1_455  S
Zn654       O665   2.018       .  S
Zn655       O656   1.959       .  S
Zn655       O663   2.015       .  S
Zn655       O666   2.013   1_455  S
Zn655       O667   2.037       .  S
O657        C669   1.271       .  A
O658      Zn1841   2.043       .  S
O658        C670   1.276       .  A
O659        C671   1.274       .  A
O660        C669   1.275   1_655  A
O661        C671   1.271       .  A
O662       C1858   1.274       .  A
O663        C672   1.273       .  A
O664      Zn1841   2.045       .  S
O664        C673   1.277       .  A
O665        C672   1.274       .  A
O666       C1861   1.273       .  A
O667        C674   1.274       .  A
O668        C674   1.272       .  A
C670       O1850   1.274       .  A
C671       C1142   1.471       .  S
C673        C675   1.472       .  S
C673       O1854   1.273       .  A
C674        C954   1.472       .  S
C675        C676   1.404       .  A
C675        C680   1.407       .  A
C676        C677   1.400       .  A
C676        H681   1.085       .  S
C677        C835   1.461       .  S
C677        C678   1.397       .  A
C678        C679   1.398       .  A
C678        H682   1.085       .  S
C679        C902   1.465       .  S
C679        C680   1.407       .  A
C680        H683   1.083       .  S
C684        C712   1.473       .  S
C684        C685   1.406       .  A
C684        C689   1.403       .  A
C685        C686   1.413       .  A
C685        H690   1.083       .  S
C686        C880   1.483       .  S
C686        C687   1.403       .  A
C687        C688   1.397       .  A
C687        H691   1.084       .  S
C688        C858   1.461       .  S
C688        C689   1.399       .  A
C689        H692   1.084       .  S
Zn693      O1885   1.972   1_455  S
Zn693       O698   2.054       .  S
Zn693       O702   2.047       .  S
Zn693       O709   2.044       .  S
Zn694       O697   1.948       .  S
Zn694       O699   2.009       .  S
Zn694      O1889   2.011       .  S
Zn694       O705   2.023       .  S
Zn695       O697   1.948       .  S
Zn695      O1888   2.015       .  S
Zn695       O703   2.011       .  S
Zn695       O706   2.025       .  S
Zn696       O697   1.946       .  S
Zn696       O704   2.007       .  S
Zn696       O707   2.012       .  S
Zn696       O708   1.983       .  S
O697      Zn1881   1.972       .  S
O698        C710   1.278       .  A
O699        C711   1.272       .  A
O700      Zn1883   2.015   1_455  S
O700        C712   1.274       .  A
O701      Zn1882   2.011   1_455  S
O701        C710   1.273       .  A
O702        C712   1.277       .  A
O703        C711   1.272       .  A
O704        C713   1.270       .  A
O705        C714   1.272       .  A
O706        C713   1.272       .  A
O707        C714   1.271       .  A
O708        C715   1.270       .  A
O709       C1903   1.276       .  A
C710        C716   1.474       .  S
C711       C1829   1.455       .  S
C713        C932   1.459       .  S
C714       C1121   1.460       .  S
C715       C1807   1.456       .  S
C715       O1897   1.276       .  A
C716        C717   1.404       .  A
C716        C721   1.408       .  A
C717        C718   1.400       .  A
C717        H722   1.085       .  S
C718       C1045   1.461       .  S
C718        C719   1.397       .  A
C719        C720   1.398       .  A
C719        H723   1.085       .  S
C720       C1068   1.467       .  S
C720        C721   1.409       .  A
C721        H724   1.083       .  S
C725        C755   1.488       .  S
C725        C726   1.410       .  A
C725        C730   1.409       .  A
C726        C727   1.413       .  A
C726        H731   1.083       .  S
C727        C928   1.483       .  S
C727        C728   1.403       .  A
C728        C729   1.395       .  A
C728        H732   1.084       .  S
C729        C904   1.463       .  S
C729        C730   1.397       .  A
C730        H733   1.084       .  S
Zn734       O738   1.953       .  S
Zn734       O739   2.005       .  S
Zn734       O743   2.013       .  S
Zn734       O750   2.018       .  S
Zn735       O740   2.058       .  S
Zn735       O742   2.023       .  S
Zn735       O746   2.057       .  S
Zn736       O738   1.950       .  S
Zn736       O741   2.021       .  S
Zn736       O747   2.011       .  S
Zn737       O738   1.943       .  S
Zn737       O745   1.997       .  S
Zn737       O749   2.019       .  S
O739        C751   1.273       .  A
O740        C752   1.279       .  A
O741        C753   1.272       .  A
O743        C753   1.273       .  A
O744        C752   1.273       .  A
O745        C754   1.271       .  A
O746        C755   1.279       .  A
O747        C754   1.272       .  A
O748        C755   1.274       .  A
O749        C756   1.271       .  A
O750        C756   1.272       .  A
C752        C757   1.488       .  S
C753       C1026   1.469       .  S
C756        C833   1.461       .  S
C757        C758   1.408       .  A
C757        C762   1.410       .  A
C758        C759   1.395       .  A
C758        H763   1.084       .  S
C759       C1091   1.462       .  S
C759        C760   1.394       .  A
C760        C761   1.403       .  A
C760        H764   1.084       .  S
C761       C1120   1.482       .  S
C761        C762   1.414       .  A
C762        H765   1.083       .  S
C766        C795   1.473       .  S
C766        C767   1.404       .  A
C766        C771   1.407       .  A
C767        C768   1.400       .  A
C767        H772   1.085       .  S
C768       C1069   1.463       .  S
C768        C769   1.398       .  A
C769        C770   1.399       .  A
C769        H773   1.085       .  S
C770       C1144   1.468       .  S
C770        C771   1.408       .  A
C771        H774   1.084       .  S
Zn775       O779   1.941       .  S
Zn775       O780   2.004       .  S
Zn775       O784   1.991       .  S
Zn775       O791   2.007       .  S
Zn776       O779   1.959       .  S
Zn776       O781   2.020       .  S
Zn776       O783   2.036       .  S
Zn776       O787   2.016       .  S
Zn777       O779   1.976   1_545  S
Zn777       O782   2.045   1_545  S
Zn778       O779   1.959       .  S
Zn778       O786   2.018       .  S
Zn778       O789   2.014       .  S
Zn778       O790   2.039       .  S
O780        C792   1.271       .  A
O782        C794   1.275       .  A
O783        C792   1.274       .  A
O784        C794   1.271       .  A
O785        C793   1.276       .  A
O787        C796   1.274       .  A
O788        C795   1.276       .  A
O789        C796   1.273       .  A
O790        C797   1.274       .  A
O791        C797   1.271       .  A
C792        C855   1.471       .  S
C793        C798   1.474       .  S
C797       C1047   1.473       .  S
C798        C799   1.406       .  A
C798        C803   1.405       .  A
C799        C800   1.406       .  A
C799        H804   1.084       .  S
C800        C956   1.467       .  S
C800        C801   1.397       .  A
C801        C802   1.403       .  A
C801        H805   1.085       .  S
C802        C879   1.481       .  S
C802        C803   1.406       .  A
C803        H806   1.084       .  S
C807        N808   1.358       .  A
C807        N812   1.360       .  A
C807        C931   1.469       .  S
N808        C809   1.357       .  A
C809        N810   1.358       .  A
C809        C878   1.467       .  S
N810        C811   1.357       .  A
C811        N812   1.359       .  A
C811        C832   1.462       .  S
Zn813       O817   1.961       .  S
Zn813       O818   2.011       .  S
Zn813       O822   2.020       .  S
Zn813       O829   2.004       .  S
Zn814      O2005   1.970   1_455  S
Zn814       O819   2.020       .  S
Zn814       O821   2.031       .  S
Zn814       O825   2.036       .  S
Zn815       O817   1.952       .  S
Zn815       O820   2.020       .  S
Zn815       O823   2.003       .  S
Zn815       O826   2.013       .  S
Zn816       O817   1.967       .  S
Zn816       O824   2.022       .  S
Zn816      O2015   2.012       .  S
Zn816       O828   2.024       .  S
O817      Zn2002   1.970       .  S
O818       C2018   1.271       .  A
O819       C2019   1.272   1_455  A
O820        C832   1.272       .  A
O821        C830   1.275       .  A
O822        C832   1.272       .  A
O823        C831   1.273       .  A
O824        C833   1.271       .  A
O825        C834   1.275       .  A
O826        C833   1.271       .  A
O827      Zn2004   2.012   1_455  S
O827        C834   1.272       .  A
O828        C835   1.275       .  A
O829        C835   1.272       .  A
C830        C857   1.472       .  S
C830       O2006   1.271   1_455  A
C831       C1809   1.458       .  S
C831       O2007   1.272       .  A
C834        C961   1.468       .  S
Zn836       O840   1.965       .  S
Zn836       O841   2.008       .  S
Zn836       O845   2.030       .  S
Zn836       O852   2.018       .  S
Zn837       O840   1.969       .  S
Zn837       O842   2.016       .  S
Zn837      O2032   2.036   1_455  S
Zn837       O848   2.033       .  S
Zn838       O840   1.947       .  S
Zn838       O843   2.006       .  S
Zn838       O846   1.993       .  S
Zn838       O849   2.006       .  S
Zn839       O840   1.958       .  S
Zn839       O847   2.008       .  S
Zn839       O850   2.009       .  S
Zn839       O851   2.006       .  S
O841       C2041   1.273   1_455  A
O842        C854   1.272       .  A
O843        C855   1.271       .  A
O844      Zn2025   2.036       .  S
O844        C853   1.276       .  A
O845        C855   1.272       .  A
O846        C854   1.271       .  A
O847        C856   1.271       .  A
O848        C857   1.275       .  A
O849        C856   1.271       .  A
O850        C857   1.271       .  A
O851        C858   1.272       .  A
O852        C858   1.274       .  A
C853       C1152   1.466       .  S
C853       O2029   1.273       .  A
C856        C907   1.454       .  S
Zn859       O863   1.962       .  S
Zn859       O864   2.008       .  S
Zn859       O868   2.008       .  S
Zn859       O875   2.010       .  S
Zn860       O863   1.957       .  S
Zn860       O865   2.009       .  S
Zn861       O863   1.959       .  S
Zn861       O866   2.018       .  S
Zn861       O869   2.028       .  S
Zn861       O872   2.005       .  S
Zn862       O873   2.033       .  S
Zn862       O874   2.040       .  S
O865        C877   1.270       .  A
O866        C878   1.273       .  A
O867        C876   1.272   1_565  A
O868        C878   1.272       .  A
O869        C877   1.272       .  A
O870        C879   1.275       .  A
O871        C880   1.271       .  A
O872        C879   1.274       .  A
O873        C880   1.278       .  A
O874        C881   1.275       .  A
C877        C986   1.462       .  S
C881        C901   1.465       .  S
Zn882       O886   1.960       .  S
Zn882       O887   2.007       .  S
Zn882       O891   2.015       .  S
Zn882       O898   2.012       .  S
Zn883       O886   1.948       .  S
Zn883       O888   1.995       .  S
Zn883       O890   2.003       .  S
Zn883       O894   2.010       .  S
Zn884       O886   1.971       .  S
Zn884       O889   2.034       .  S
Zn884       O892   2.020       .  S
Zn885       O886   1.964       .  S
Zn885       O893   2.010       .  S
Zn885       O896   2.031       .  S
Zn885       O897   2.017       .  S
O887        C899   1.271       .  A
O888        C900   1.271       .  A
O889        C901   1.274       .  A
O890        C899   1.270       .  A
O891        C901   1.271       .  A
O892        C900   1.272       .  A
O894        C903   1.271       .  A
O895        C902   1.276       .  A
O896        C903   1.272       .  A
O897        C904   1.274       .  A
O898        C904   1.273       .  A
C899        C909   1.453       .  S
C903       C1175   1.472       .  S
C905        N906   1.357       .  A
C905        N910   1.356       .  A
C905        C952   1.455       .  S
N906        C907   1.357       .  A
C907        N908   1.355       .  A
N908        C909   1.355       .  A
C909        N910   1.356       .  A
Zn911       O915   1.961       .  S
Zn911       O916   2.027       .  S
Zn911       O920   2.035       .  S
Zn911       O927   2.027       .  S
Zn912       O915   1.959       .  S
Zn912       O917   2.009       .  S
Zn912       O919   2.010       .  S
Zn912       O923   2.015       .  S
Zn913       O915   1.961       .  S
Zn913       O918   2.006       .  S
Zn913       O921   2.017       .  S
Zn913       O924   2.019       .  S
Zn914       O915   1.959       .  S
Zn914       O922   2.014       .  S
Zn914       O925   2.017       .  S
Zn914       O926   1.997       .  S
O916        C928   1.277       .  A
O917        C929   1.274       .  A
O918        C930   1.270       .  A
O919        C928   1.272       .  A
O920        C930   1.274       .  A
O921        C929   1.273       .  A
O922        C931   1.272       .  A
O923        C932   1.271       .  A
O924        C931   1.274       .  A
O925        C932   1.271       .  A
O926        C933   1.273       .  A
O927        C933   1.275       .  A
C930        C951   1.462       .  S
C933       C1150   1.480       .  S
Zn934       O938   1.970       .  S
Zn934       O939   2.028       .  S
Zn934       O943   2.017       .  S
Zn934       O950   2.031       .  S
Zn935       O938   1.961       .  S
Zn935       O940   2.013       .  S
Zn935       O942   2.015       .  S
Zn935       O946   2.013       .  S
Zn936       O938   1.948       .  S
Zn936       O941   1.997       .  S
Zn936       O944   2.006       .  S
Zn936       O947   2.003       .  S
Zn937       O938   1.966       .  S
Zn937       O945   2.035       .  S
Zn937       O948   2.024       .  S
Zn937       O949   2.013       .  S
O939        C951   1.273       .  A
O940        C952   1.271       .  A
O941        C953   1.271       .  A
O942        C951   1.271       .  A
O943        C953   1.272       .  A
O944        C952   1.271       .  A
O945        C954   1.273       .  A
O946        C955   1.273       .  A
O947        C954   1.271       .  A
O948        C955   1.275       .  A
O949        C956   1.273       .  A
O950        C956   1.275       .  A
C955        C959   1.464       .  S
C957        C987   1.476       .  S
C957        C958   1.406       .  A
C957        C962   1.408       .  A
C958        C959   1.402       .  A
C958        H963   1.084       .  S
C959        C960   1.397       .  A
C960        C961   1.397       .  A
C960        H964   1.085       .  S
C961        C962   1.408       .  A
C962        H965   1.084       .  S
Zn966       O970   1.959       .  S
Zn966       O971   2.009       .  S
Zn966       O975   2.029       .  S
Zn966       O982   2.018       .  S
Zn967       O970   1.973       .  S
Zn967       O972   2.043       .  S
Zn967       O974   2.053       .  S
Zn967       O978   2.047       .  S
Zn968       O970   1.945       .  S
Zn968       O973   2.004       .  S
Zn968       O976   1.985       .  S
Zn968       O979   2.004       .  S
Zn969       O970   1.955       .  S
Zn969       O977   2.034       .  S
Zn969       O980   2.025       .  S
Zn969       O981   2.016       .  S
O971        C983   1.273       .  A
O972        C984   1.276       .  A
O973        C985   1.272       .  A
O974        C983   1.277       .  A
O975        C985   1.273       .  A
O976        C984   1.269       .  A
O977        C986   1.273       .  A
O978        C987   1.277       .  A
O979        C986   1.269       .  A
O980        C987   1.275       .  A
O981        C988   1.273       .  A
O982        C988   1.273       .  A
C983        C989   1.473       .  S
C985       C1070   1.469       .  S
C989        C990   1.405       .  A
C989        C994   1.403       .  A
C990        C991   1.413       .  A
C990        H995   1.084       .  S
C991       C1021   1.481       .  S
C991        C992   1.402       .  A
C992        C993   1.396       .  A
C992        H996   1.084       .  S
C993       C1147   1.460       .  S
C993        C994   1.399       .  A
C994        H997   1.084       .  S
C998        N999   1.358       .  A
C998       N1003   1.357       .  A
C998       C1124   1.466       .  S
N999       C1000   1.359       .  A
C1000      N1001   1.358       .  A
C1000      C1024   1.467       .  S
N1001      C1002   1.357       .  A
C1002      N1003   1.356       .  A
C1002      C1072   1.455       .  S
Zn1004     O1008   1.953       .  S
Zn1004     O2197   1.997       .  S
Zn1004     O1013   1.995       .  S
Zn1004     O1020   1.997       .  S
Zn1005     O1008   1.961       .  S
Zn1005     O2198   2.033       .  S
Zn1005     O2200   2.032       .  S
Zn1005     O1016   2.029   1_556  S
Zn1006     O1008   1.962       .  S
Zn1006     O1011   2.015       .  S
Zn1006     O1014   2.007       .  S
Zn1006     O1017   2.012       .  S
Zn1007     O1008   1.959       .  S
Zn1007     O1015   2.016       .  S
Zn1007     O1018   2.007       .  S
Zn1007     O1019   2.033       .  S
O1009     Zn2192   1.997   1_455  S
O1009      C1021   1.270       .  A
O1010     Zn2193   2.033   1_455  S
O1010      C1022   1.274       .  A
O1011      C1023   1.272       .  A
O1012     Zn2193   2.032   1_455  S
O1012      C1021   1.277       .  A
O1013      C1023   1.271       .  A
O1014      C2210   1.270       .  A
O1015      C1024   1.273       .  A
O1016      C1025   1.275       .  A
O1017      C1024   1.273       .  A
O1018      C1025   1.274   1_556  A
O1019      C1026   1.274       .  A
O1020      C1026   1.270       .  A
C1022      C1044   1.461   1_556  S
C1022      O2202   1.270   1_455  A
C1023      C1811   1.460       .  S
Zn1027     O1031   1.971       .  S
Zn1027     O1032   2.027       .  S
Zn1027     O2224   2.034   1_455  S
Zn1027     O1043   2.019       .  S
Zn1028     O1031   1.960       .  S
Zn1028     O1033   2.003   1_554  S
Zn1028     O1035   2.010       .  S
Zn1028     O1039   2.014       .  S
Zn1029     O1031   1.968       .  S
Zn1029     O1034   2.015       .  S
Zn1029     O1037   2.026       .  S
Zn1029     O1040   2.035       .  S
Zn1030     O1031   1.948       .  S
Zn1030     O1038   2.010       .  S
Zn1030     O1041   2.010       .  S
Zn1030     O1042   1.998       .  S
O1032      C1044   1.273       .  A
O1033      C1045   1.272       .  A
O1034      C2234   1.273   1_455  A
O1035      C1044   1.270       .  A
O1036     Zn2215   2.034       .  S
O1036      C1046   1.275       .  A
O1037      C1045   1.275   1_554  A
O1038      C1047   1.272       .  A
O1039      C1048   1.271       .  A
O1040      C1047   1.273       .  A
O1041      C1048   1.271       .  A
O1042      C1049   1.272       .  A
O1043      C1049   1.272       .  A
C1046      C1184   1.467       .  S
C1046      O2222   1.273       .  A
C1048      C1100   1.457       .  S
Zn1050     O1054   1.960       .  S
Zn1050     O1055   2.014       .  S
Zn1050     O1059   2.011   1_556  S
Zn1050     O1066   2.015       .  S
Zn1051     O1056   2.031       .  S
Zn1051     O1058   2.034       .  S
Zn1051     O1062   2.019       .  S
Zn1052     O1054   1.966       .  S
Zn1052     O1057   2.024       .  S
Zn1052     O1063   2.036       .  S
Zn1053     O1054   1.944       .  S
Zn1053     O1061   1.991       .  S
Zn1053     O1064   1.984       .  S
Zn1053     O1065   2.000       .  S
O1056      C1068   1.275       .  A
O1057      C1069   1.275   1_556  A
O1058      C1067   1.275       .  A
O1059      C1069   1.273       .  A
O1060      C1068   1.273       .  A
O1061      C1070   1.269       .  A
O1062      C1071   1.272       .  A
O1063      C1070   1.273       .  A
O1065      C1072   1.270       .  A
O1066      C1072   1.271       .  A
C1067      C1093   1.473   1_556  S
Zn1073     O1077   1.949       .  S
Zn1073     O1078   2.010       .  S
Zn1073     O1082   2.007       .  S
Zn1073     O1089   1.999       .  S
Zn1074     O1077   1.966       .  S
Zn1074     O1079   2.021       .  S
Zn1074     O1081   2.027       .  S
Zn1074     O1085   2.014       .  S
Zn1075     O1077   1.960       .  S
Zn1075     O1080   2.011       .  S
Zn1075     O1083   2.004   1_554  S
Zn1075     O1086   2.017       .  S
Zn1076     O1077   1.968       .  S
Zn1076     O1084   2.029       .  S
Zn1076     O1088   2.018       .  S
O1078      C1090   1.272       .  A
O1079      C1091   1.274   1_554  A
O1080      C1092   1.271       .  A
O1081      C1090   1.272       .  A
O1082      C1092   1.271       .  A
O1083      C1091   1.272       .  A
O1084      C1093   1.274       .  A
O1086      C1093   1.272       .  A
O1087      C1094   1.275       .  A
O1088      C1095   1.272       .  A
O1089      C1095   1.272       .  A
C1090      C1176   1.471       .  S
C1092      C1098   1.456       .  S
C1096      N1097   1.356       .  A
C1096      N1101   1.357       .  A
C1096      C1146   1.458       .  S
N1097      C1098   1.356       .  A
C1098      N1099   1.356       .  A
N1099      C1100   1.356       .  A
C1100      N1101   1.358       .  A
Zn1102     O1106   1.957       .  S
Zn1102     O1107   2.004       .  S
Zn1102     O1111   2.020       .  S
Zn1102     O1118   2.006       .  S
Zn1103     O1106   1.960       .  S
Zn1103     O1108   2.026       .  S
Zn1103     O1110   2.027   1_556  S
Zn1103     O1114   2.036       .  S
Zn1104     O1106   1.959       .  S
Zn1104     O1109   2.012       .  S
Zn1104     O1112   2.007       .  S
Zn1104     O1115   2.003       .  S
Zn1105     O1106   1.962       .  S
Zn1105     O1113   2.013       .  S
Zn1105     O1116   2.011       .  S
Zn1105     O1117   2.017       .  S
O1107      C1119   1.274   1_556  A
O1108      C1120   1.277       .  A
O1109      C1121   1.271       .  A
O1110      C1119   1.275       .  A
O1111      C1121   1.271       .  A
O1112      C1120   1.272       .  A
O1113      C1122   1.273       .  A
O1114      C1123   1.274       .  A
O1115      C1122   1.272       .  A
O1116      C1123   1.271       .  A
O1117      C1124   1.273       .  A
O1118      C1124   1.272       .  A
C1119      C1182   1.482       .  S
C1123      C1145   1.463   1_556  S
Zn1125     O1129   1.967       .  S
Zn1125     O1130   2.029       .  S
Zn1125     O1134   2.013       .  S
Zn1125     O1141   2.019       .  S
Zn1126     O1129   1.950       .  S
Zn1126     O1131   1.995       .  S
Zn1126     O1133   2.007       .  S
Zn1126     O1137   2.015       .  S
Zn1127     O1129   1.971       .  S
Zn1127     O1132   2.035       .  S
Zn1127     O1135   2.021       .  S
Zn1127     O1138   2.033       .  S
Zn1128     O1129   1.959       .  S
Zn1128     O1136   2.012       .  S
Zn1128     O1139   2.012       .  S
Zn1128     O1140   2.003   1_554  S
O1130      C1142   1.272       .  A
O1131      C1143   1.272       .  A
O1132      C1144   1.275       .  A
O1133      C1142   1.271       .  A
O1134      C1144   1.273       .  A
O1135      C1143   1.273       .  A
O1136      C1145   1.270       .  A
O1137      C1146   1.271       .  A
O1138      C1145   1.274       .  A
O1139      C1146   1.271       .  A
O1140      C1147   1.272       .  A
O1141      C1147   1.274   1_554  A
C1148      C1178   1.473       .  S
C1148      C1149   1.405       .  A
C1148      C1153   1.406       .  A
C1149      C1150   1.406       .  A
C1149      H1154   1.084       .  S
C1150      C1151   1.404       .  A
C1151      C1152   1.396       .  A
C1151      H1155   1.085       .  S
C1152      C1153   1.405       .  A
C1153      H1156   1.084       .  S
Zn1157     O1161   1.956       .  S
Zn1157     O1162   2.017       .  S
Zn1157     O1166   2.033       .  S
Zn1157     O1173   2.024       .  S
Zn1158     O1161   1.956       .  S
Zn1158     O1163   2.036       .  S
Zn1158     O1165   2.015       .  S
Zn1158     O1169   2.019       .  S
Zn1159     O1161   1.942       .  S
Zn1159     O1164   2.004       .  S
Zn1159     O1167   2.007       .  S
Zn1159     O1170   1.989       .  S
Zn1160     O1161   1.974       .  S
Zn1160     O1168   2.039       .  S
Zn1160     O1171   2.042       .  S
Zn1160     O1172   2.042       .  S
O1162      C1174   1.274       .  A
O1163      C1175   1.274       .  A
O1164      C1176   1.271       .  A
O1165      C1174   1.274       .  A
O1166      C1176   1.274       .  A
O1167      C1175   1.271       .  A
O1168      C1177   1.275       .  A
O1169      C1178   1.274       .  A
O1170      C1177   1.271       .  A
O1171      C1178   1.276       .  A
O1172      C1179   1.276       .  A
O1173      C1179   1.274       .  A
C1179      C1180   1.475       .  S
C1180      C1181   1.406       .  A
C1180      C1185   1.406       .  A
C1181      C1182   1.407       .  A
C1181      H1186   1.084       .  S
C1182      C1183   1.404       .  A
C1183      C1184   1.397       .  A
C1183      H1187   1.085       .  S
C1184      C1185   1.405       .  A
C1185      H1188   1.084       .  S
C1189      N1190   1.356       .  A
C1189      N1194   1.354       .  A
C1189      C1470   1.460       .  S
N1190      C1191   1.359       .  A
C1191      N1192   1.358       .  A
C1191      C1942   1.462       .  S
N1192      C1193   1.356       .  A
C1193      N1194   1.354       .  A
C1193      C1665   1.452       .  S
C1195      N1196   1.358       .  A
C1195      N1200   1.351       .  A
C1195      C1689   1.456       .  S
N1196      C1197   1.361       .  A
C1197      N1198   1.360       .  A
C1197      C1388   1.459       .  S
N1198      C1199   1.357       .  A
C1199      N1200   1.351       .  A
C1199      C1494   1.455       .  S
C1201      N1202   1.352       .  A
C1201      N1206   1.357       .  A
C1201      C1547   1.456       .  S
N1202      C1203   1.352       .  A
C1203      N1204   1.357       .  A
C1203      C1737   1.456       .  S
N1204      C1205   1.359       .  A
C1205      N1206   1.359       .  A
C1205      C1771   1.456       .  S
C1207      N1208   1.354       .  A
C1207      N1212   1.357       .  A
C1207      C1716   1.461       .  S
N1208      C1209   1.354       .  A
C1209      N1210   1.359       .  A
C1209      C1523   1.464       .  S
N1210      C1211   1.360       .  A
C1211      N1212   1.357       .  A
C1211      C1578   1.457       .  S
C1213      N1214   1.360       .  A
C1213      N1218   1.358       .  A
N1214      C1215   1.358       .  A
C1215      N1216   1.353       .  A
N1216      C1217   1.354       .  A
C1217      N1218   1.356       .  A
C1219      N1220   1.361       .  A
C1219      N1224   1.359       .  A
C1219      C1263   1.459       .  S
N1220      C1221   1.358       .  A
C1221      N1222   1.351       .  A
C1221      C1643   1.457       .  S
N1222      C1223   1.351       .  A
C1223      N1224   1.356       .  A
C1223      C1448   1.454       .  S
C1225      N1226   1.356       .  A
C1225      N1824   1.357       .  A
C1225      C1390   1.456       .  S
C1227      N1228   1.357       .  A
C1227      C1768   1.457       .  S
C1229      N1230   1.356       .  A
C1229      C1266   1.457       .  S
N1230      C1819   1.357   1_545  A
C1231      N1236   1.357       .  A
C1231      C1939   1.466       .  S
N1232      C1233   1.357       .  A
C1233      N1828   1.356   1_545  A
C1233      C1582   1.458       .  S
N1234      C1827   1.356       .  A
N1234      C1235   1.356       .  A
C1237      C1264   1.474       .  S
C1237      C1238   1.406       .  A
C1237      C1242   1.405       .  A
C1238      C1239   1.407       .  A
C1238      H1243   1.084       .  S
C1239      C1619   1.483       .  S
C1239      C1240   1.404       .  A
C1240      C1241   1.397       .  A
C1240      H1244   1.084       .  S
C1241      C1688   1.467       .  S
C1241      C1242   1.405       .  A
C1242      H1245   1.084       .  S
Zn1246     O1250   1.941       .  S
Zn1246     O1251   1.992       .  S
Zn1246     O1255   2.003       .  S
Zn1246     O1262   2.007       .  S
Zn1247     O1250   1.975       .  S
Zn1247     O1254   2.043       .  S
Zn1248     O1250   1.958       .  S
Zn1248     O1253   2.034       .  S
Zn1248     O1256   2.021       .  S
Zn1248     O1259   2.018       .  S
Zn1249     O1250   1.959       .  S
Zn1249     O1257   2.015       .  S
Zn1249     O1260   2.013       .  S
Zn1249     O1261   2.037       .  S
O1251      C1263   1.271       .  A
O1252      C1264   1.276       .  A
O1253      C1265   1.274       .  A
O1254      C1263   1.275       .  A
O1255      C1265   1.271       .  A
O1257      C1266   1.273       .  A
O1258      C1267   1.277       .  A
O1259      C1266   1.274       .  A
O1261      C1268   1.274       .  A
O1262      C1268   1.272       .  A
C1265      C1736   1.471       .  S
C1267      C1269   1.472       .  S
C1268      C1548   1.472       .  S
C1269      C1270   1.404       .  A
C1269      C1274   1.407       .  A
C1270      C1271   1.400       .  A
C1270      H1275   1.085       .  S
C1271      C1429   1.461       .  S
C1271      C1272   1.397       .  A
C1272      C1273   1.398       .  A
C1272      H1276   1.085       .  S
C1273      C1496   1.465       .  S
C1273      C1274   1.407       .  A
C1274      H1277   1.083       .  S
C1278      C1306   1.473       .  S
C1278      C1279   1.406       .  A
C1278      C1283   1.403       .  A
C1279      C1280   1.413       .  A
C1279      H1284   1.083       .  S
C1280      C1474   1.483       .  S
C1280      C1281   1.403       .  A
C1281      C1282   1.397       .  A
C1281      H1285   1.084       .  S
C1282      C1452   1.461       .  S
C1282      C1283   1.399       .  A
C1283      H1286   1.084       .  S
Zn1287     O1292   2.054       .  S
Zn1287     O1296   2.047       .  S
Zn1287     O1303   2.044       .  S
Zn1288     O1291   1.948       .  S
Zn1288     O1293   2.009   1_655  S
Zn1288     O1299   2.023       .  S
Zn1289     O1291   1.948       .  S
Zn1289     O1297   2.011   1_655  S
Zn1289     O1300   2.025       .  S
Zn1290     O1291   1.946       .  S
Zn1290     O1298   2.007       .  S
Zn1290     O1301   2.012       .  S
Zn1290     O1302   1.983       .  S
O1292      C1304   1.278       .  A
O1293      C1305   1.272       .  A
O1294      C1306   1.274       .  A
O1295      C1304   1.273       .  A
O1296      C1306   1.277       .  A
O1297      C1305   1.272       .  A
O1298      C1307   1.270       .  A
O1299      C1308   1.272       .  A
O1300      C1307   1.272       .  A
O1301      C1308   1.271       .  A
O1302      C1309   1.270   1_655  A
C1304      C1310   1.474       .  S
C1307      C1526   1.459       .  S
C1308      C1715   1.460       .  S
C1310      C1311   1.404       .  A
C1310      C1315   1.408       .  A
C1311      C1312   1.400       .  A
C1311      H1316   1.085       .  S
C1312      C1639   1.461       .  S
C1312      C1313   1.397       .  A
C1313      C1314   1.398       .  A
C1313      H1317   1.085       .  S
C1314      C1662   1.467       .  S
C1314      C1315   1.409       .  A
C1315      H1318   1.083       .  S
C1319      C1349   1.488       .  S
C1319      C1320   1.410       .  A
C1319      C1324   1.409       .  A
C1320      C1321   1.413       .  A
C1320      H1325   1.083       .  S
C1321      C1522   1.483       .  S
C1321      C1322   1.403       .  A
C1322      C1323   1.395       .  A
C1322      H1326   1.084       .  S
C1323      C1498   1.463       .  S
C1323      C1324   1.397       .  A
C1324      H1327   1.084       .  S
Zn1328     O1332   1.953   1_545  S
Zn1328     O1333   2.005       .  S
Zn1328     O1337   2.013       .  S
Zn1328     O1344   2.018       .  S
Zn1329     O1926   1.972       .  S
Zn1329     O1334   2.058       .  S
Zn1329     O1336   2.023       .  S
Zn1329     O1340   2.057       .  S
Zn1330     O1332   1.950       .  S
Zn1330     O1335   2.021   1_565  S
Zn1330     O1932   1.992       .  S
Zn1330     O1341   2.011       .  S
Zn1331     O1332   1.943       .  S
Zn1331     O1339   1.997       .  S
Zn1331     O1936   1.999       .  S
Zn1331     O1343   2.019   1_565  S
O1332     Zn1923   1.972       .  S
O1333      C1345   1.273   1_545  A
O1334      C1346   1.279       .  A
O1335      C1347   1.272       .  A
O1336      C1939   1.275       .  A
O1337      C1347   1.273       .  A
O1338     Zn1924   1.992       .  S
O1338      C1346   1.273       .  A
O1339      C1348   1.271       .  A
O1340      C1349   1.279       .  A
O1341      C1348   1.272       .  A
O1342     Zn1925   1.999       .  S
O1342      C1349   1.274       .  A
O1343      C1350   1.271       .  A
O1344      C1350   1.272       .  A
C1345      C1825   1.466       .  S
C1345      O1930   1.275       .  A
C1346      C1351   1.488       .  S
C1347      C1620   1.469       .  S
C1348      C1785   1.462       .  S
C1350      C1427   1.461       .  S
C1351      C1352   1.408       .  A
C1351      C1356   1.410       .  A
C1352      C1353   1.395       .  A
C1352      H1357   1.084       .  S
C1353      C1685   1.462       .  S
C1353      C1354   1.394       .  A
C1354      C1355   1.403       .  A
C1354      H1358   1.084       .  S
C1355      C1714   1.482       .  S
C1355      C1356   1.414       .  A
C1356      H1359   1.083       .  S
C1360      C1389   1.473       .  S
C1360      C1361   1.404       .  A
C1360      C1365   1.407       .  A
C1361      C1362   1.400       .  A
C1361      H1366   1.085       .  S
C1362      C1663   1.463       .  S
C1362      C1363   1.398       .  A
C1363      C1364   1.399       .  A
C1363      H1367   1.085       .  S
C1364      C1738   1.468       .  S
C1364      C1365   1.408       .  A
C1365      H1368   1.084       .  S
Zn1369     O1373   1.941       .  S
Zn1369     O1374   2.004       .  S
Zn1369     O1378   1.991       .  S
Zn1369     O1385   2.007       .  S
Zn1370     O1373   1.959       .  S
Zn1370     O1375   2.020       .  S
Zn1370     O1377   2.036       .  S
Zn1370     O1381   2.016       .  S
Zn1371     O1373   1.976       .  S
Zn1371     O1376   2.045       .  S
Zn1371     O1973   2.046       .  S
Zn1371     O1976   2.043       .  S
Zn1372     O1373   1.959       .  S
Zn1372     O1380   2.018       .  S
Zn1372     O1383   2.014       .  S
Zn1372     O1384   2.039       .  S
O1374      C1386   1.271       .  A
O1375      C1981   1.274       .  A
O1376      C1388   1.275       .  A
O1377      C1386   1.274       .  A
O1378      C1388   1.271       .  A
O1379     Zn1965   2.046       .  S
O1379      C1387   1.276       .  A
O1380      C1983   1.274       .  A
O1381      C1390   1.274       .  A
O1382     Zn1965   2.043       .  S
O1382      C1389   1.276       .  A
O1383      C1390   1.273       .  A
O1384      C1391   1.274       .  A
O1385      C1391   1.271       .  A
C1386      C1449   1.471       .  S
C1387      C1392   1.474       .  S
C1387      O1969   1.274   1_545  A
C1389      O1974   1.274   1_545  A
C1391      C1641   1.473       .  S
C1392      C1393   1.406       .  A
C1392      C1397   1.405       .  A
C1393      C1394   1.406       .  A
C1393      H1398   1.084       .  S
C1394      C1550   1.467       .  S
C1394      C1395   1.397       .  A
C1395      C1396   1.403       .  A
C1395      H1399   1.085       .  S
C1396      C1473   1.481       .  S
C1396      C1397   1.406       .  A
C1397      H1400   1.084       .  S
C1401      N1402   1.358       .  A
C1401      N1406   1.360       .  A
C1401      C1525   1.469       .  S
N1402      C1403   1.357       .  A
C1403      N1404   1.358       .  A
C1403      C1472   1.467       .  S
N1404      C1405   1.357       .  A
C1405      N1406   1.359       .  A
C1405      C1426   1.462       .  S
Zn1407     O1411   1.961       .  S
Zn1407     O1412   2.011       .  S
Zn1407     O1416   2.020       .  S
Zn1407     O1423   2.004       .  S
Zn1408     O1413   2.020       .  S
Zn1408     O1415   2.031       .  S
Zn1408     O1419   2.036       .  S
Zn1409     O1411   1.952       .  S
Zn1409     O1414   2.020       .  S
Zn1409     O1417   2.003       .  S
Zn1409     O1420   2.013       .  S
Zn1410     O1411   1.967       .  S
Zn1410     O1418   2.022       .  S
Zn1410     O1422   2.024       .  S
O1414      C1426   1.272       .  A
O1415      C1424   1.275       .  A
O1416      C1426   1.272       .  A
O1417      C1425   1.273       .  A
O1418      C1427   1.271       .  A
O1419      C1428   1.275       .  A
O1420      C1427   1.271       .  A
O1421      C1428   1.272       .  A
O1422      C1429   1.275       .  A
O1423      C1429   1.272       .  A
C1424      C1451   1.472       .  S
C1428      C1555   1.468       .  S
Zn1430     O1434   1.965       .  S
Zn1430     O1435   2.008       .  S
Zn1430     O1439   2.030       .  S
Zn1430     O1446   2.018       .  S
Zn1431     O1434   1.969       .  S
Zn1431     O1436   2.016       .  S
Zn1431     O1442   2.033       .  S
Zn1432     O1434   1.947       .  S
Zn1432     O1437   2.006       .  S
Zn1432     O1440   1.993       .  S
Zn1432     O1443   2.006       .  S
Zn1433     O1434   1.958       .  S
Zn1433     O1441   2.008       .  S
Zn1433     O1444   2.009       .  S
Zn1433     O1445   2.006       .  S
O1436      C1448   1.272       .  A
O1437      C1449   1.271       .  A
O1438      C1447   1.276       .  A
O1439      C1449   1.272       .  A
O1440      C1448   1.271       .  A
O1441      C1450   1.271       .  A
O1442      C1451   1.275       .  A
O1443      C1450   1.271       .  A
O1444      C1451   1.271       .  A
O1445      C1452   1.272       .  A
O1446      C1452   1.274       .  A
C1447      C1746   1.466       .  S
C1450      C1501   1.454       .  S
Zn1453     O1457   1.962       .  S
Zn1453     O1458   2.008       .  S
Zn1453     O1462   2.008       .  S
Zn1453     O1469   2.010       .  S
Zn1454     O1457   1.957       .  S
Zn1454     O1459   2.009       .  S
Zn1454     O2055   2.001   1_545  S
Zn1454     O2059   2.003   1_545  S
Zn1455     O1457   1.959       .  S
Zn1455     O1460   2.018       .  S
Zn1455     O1463   2.028       .  S
Zn1455     O1466   2.005       .  S
Zn1456     O2051   1.961       .  S
Zn1456     O2058   2.025       .  S
Zn1456     O1467   2.033       .  S
Zn1456     O1468   2.040       .  S
O1457     Zn2050   1.961   1_545  S
O1458      C2064   1.272       .  A
O1459      C1471   1.270       .  A
O1460      C1472   1.273       .  A
O1461     Zn2048   2.001       .  S
O1461      C1470   1.272       .  A
O1462      C1472   1.272       .  A
O1463      C1471   1.272       .  A
O1464     Zn2050   2.025   1_545  S
O1464      C1473   1.275       .  A
O1465     Zn2048   2.003       .  S
O1465      C1474   1.271       .  A
O1466      C1473   1.274       .  A
O1467      C1474   1.278       .  A
O1468      C1475   1.275       .  A
O1469      C2069   1.270   1_545  A
C1470      O2052   1.272       .  A
C1471      C1580   1.462       .  S
C1475      C1495   1.465       .  S
C1475      O2063   1.270       .  A
Zn1476     O1480   1.960       .  S
Zn1476     O1481   2.007       .  S
Zn1476     O1485   2.015       .  S
Zn1476     O1492   2.012       .  S
Zn1477     O1480   1.948       .  S
Zn1477     O1482   1.995       .  S
Zn1477     O1484   2.003       .  S
Zn1477     O1488   2.010       .  S
Zn1478     O1480   1.971       .  S
Zn1478     O1483   2.034       .  S
Zn1478     O1486   2.020       .  S
Zn1478     O2083   2.032       .  S
Zn1479     O1480   1.964       .  S
Zn1479     O1487   2.010       .  S
Zn1479     O1490   2.031       .  S
Zn1479     O1491   2.017       .  S
O1481      C1493   1.271       .  A
O1482      C1494   1.271       .  A
O1483      C1495   1.274       .  A
O1484      C1493   1.270       .  A
O1485      C1495   1.271       .  A
O1486      C1494   1.272       .  A
O1487      C2090   1.273       .  A
O1488      C1497   1.271       .  A
O1489     Zn2072   2.032   1_545  S
O1489      C1496   1.276       .  A
O1490      C1497   1.272       .  A
O1491      C1498   1.274       .  A
O1492      C1498   1.273       .  A
C1493      C1503   1.453       .  S
C1496      O2081   1.273   1_545  A
C1497      C1769   1.472       .  S
C1499      N1500   1.357       .  A
C1499      N1504   1.356       .  A
C1499      C1546   1.455       .  S
N1500      C1501   1.357       .  A
C1501      N1502   1.355       .  A
N1502      C1503   1.355       .  A
C1503      N1504   1.356       .  A
Zn1505     O1509   1.961       .  S
Zn1505     O1510   2.027       .  S
Zn1505     O1514   2.035       .  S
Zn1505     O1521   2.027       .  S
Zn1506     O1509   1.959       .  S
Zn1506     O1511   2.009       .  S
Zn1506     O1513   2.010       .  S
Zn1506     O1517   2.015       .  S
Zn1507     O1509   1.961       .  S
Zn1507     O1512   2.006       .  S
Zn1507     O1515   2.017       .  S
Zn1507     O1518   2.019       .  S
Zn1508     O1509   1.959       .  S
Zn1508     O1516   2.014       .  S
Zn1508     O1519   2.017       .  S
Zn1508     O1520   1.997       .  S
O1510      C1522   1.277       .  A
O1511      C1523   1.274       .  A
O1512      C1524   1.270       .  A
O1513      C1522   1.272       .  A
O1514      C1524   1.274       .  A
O1515      C1523   1.273       .  A
O1516      C1525   1.272       .  A
O1517      C1526   1.271       .  A
O1518      C1525   1.274       .  A
O1519      C1526   1.271       .  A
O1520      C1527   1.273       .  A
O1521      C1527   1.275       .  A
C1524      C1545   1.462       .  S
C1527      C1744   1.480       .  S
Zn1528     O1532   1.970       .  S
Zn1528     O1533   2.028       .  S
Zn1528     O1537   2.017       .  S
Zn1528     O1544   2.031       .  S
Zn1529     O1532   1.961       .  S
Zn1529     O1534   2.013       .  S
Zn1529     O1536   2.015       .  S
Zn1529     O1540   2.013       .  S
Zn1530     O1532   1.948       .  S
Zn1530     O1535   1.997       .  S
Zn1530     O1538   2.006       .  S
Zn1530     O1541   2.003       .  S
Zn1531     O1532   1.966       .  S
Zn1531     O1539   2.035       .  S
Zn1531     O1542   2.024       .  S
Zn1531     O1543   2.013       .  S
O1533      C1545   1.273       .  A
O1534      C1546   1.271       .  A
O1535      C1547   1.271       .  A
O1536      C1545   1.271       .  A
O1537      C1547   1.272       .  A
O1538      C1546   1.271       .  A
O1539      C1548   1.273       .  A
O1540      C1549   1.273       .  A
O1541      C1548   1.271       .  A
O1542      C1549   1.275       .  A
O1543      C1550   1.273       .  A
O1544      C1550   1.275       .  A
C1549      C1553   1.464       .  S
C1551      C1581   1.476       .  S
C1551      C1552   1.406       .  A
C1551      C1556   1.408       .  A
C1552      C1553   1.402       .  A
C1552      H1557   1.084       .  S
C1553      C1554   1.397       .  A
C1554      C1555   1.397       .  A
C1554      H1558   1.085       .  S
C1555      C1556   1.408       .  A
C1556      H1559   1.084       .  S
Zn1560     O1564   1.959       .  S
Zn1560     O1565   2.009       .  S
Zn1560     O1569   2.029       .  S
Zn1560     O1576   2.018       .  S
Zn1561     O1564   1.973       .  S
Zn1561     O1566   2.043       .  S
Zn1561     O1568   2.053       .  S
Zn1561     O1572   2.047       .  S
Zn1562     O1564   1.945       .  S
Zn1562     O1567   2.004       .  S
Zn1562     O1570   1.985       .  S
Zn1562     O1573   2.004       .  S
Zn1563     O1564   1.955       .  S
Zn1563     O1571   2.034       .  S
Zn1563     O1574   2.025       .  S
Zn1563     O1575   2.016       .  S
O1565      C1577   1.273       .  A
O1566      C1578   1.276       .  A
O1567      C1579   1.272       .  A
O1568      C1577   1.277       .  A
O1569      C1579   1.273       .  A
O1570      C1578   1.269       .  A
O1571      C1580   1.273       .  A
O1572      C1581   1.277       .  A
O1573      C1580   1.269       .  A
O1574      C1581   1.275       .  A
O1575      C1582   1.273       .  A
O1576      C1582   1.273       .  A
C1577      C1583   1.473       .  S
C1579      C1664   1.469       .  S
C1583      C1584   1.405       .  A
C1583      C1588   1.403       .  A
C1584      C1585   1.413       .  A
C1584      H1589   1.084       .  S
C1585      C1615   1.481       .  S
C1585      C1586   1.402       .  A
C1586      C1587   1.396       .  A
C1586      H1590   1.084       .  S
C1587      C1741   1.460       .  S
C1587      C1588   1.399       .  A
C1588      H1591   1.084       .  S
C1592      N1593   1.358       .  A
C1592      N1597   1.357       .  A
C1592      C1718   1.466       .  S
N1593      C1594   1.359       .  A
C1594      N1595   1.358       .  A
C1594      C1618   1.467       .  S
N1595      C1596   1.357       .  A
C1596      N1597   1.356       .  A
C1596      C1666   1.455       .  S
Zn1598     O1602   1.953       .  S
Zn1598     O1607   1.995       .  S
Zn1598     O1614   1.997       .  S
Zn1599     O1602   1.961       .  S
Zn1599     O1610   2.029   1_556  S
Zn1600     O1602   1.962       .  S
Zn1600     O1605   2.015       .  S
Zn1600     O1608   2.007       .  S
Zn1600     O1611   2.012       .  S
Zn1601     O1602   1.959       .  S
Zn1601     O1609   2.016       .  S
Zn1601     O1612   2.007       .  S
Zn1601     O1613   2.033       .  S
O1603      C1615   1.270       .  A
O1604      C1616   1.274       .  A
O1605      C1617   1.272       .  A
O1606      C1615   1.277       .  A
O1607      C1617   1.271       .  A
O1609      C1618   1.273       .  A
O1610      C1619   1.275       .  A
O1611      C1618   1.273       .  A
O1612      C1619   1.274   1_556  A
O1613      C1620   1.274       .  A
O1614      C1620   1.270       .  A
C1616      C1638   1.461   1_556  S
Zn1621     O1625   1.971       .  S
Zn1621     O1626   2.027       .  S
Zn1621     O1637   2.019       .  S
Zn1622     O1625   1.960       .  S
Zn1622     O1627   2.003   1_554  S
Zn1622     O1629   2.010       .  S
Zn1622     O1633   2.014       .  S
Zn1623     O1625   1.968       .  S
Zn1623     O1628   2.015       .  S
Zn1623     O1631   2.026       .  S
Zn1623     O1634   2.035       .  S
Zn1624     O1625   1.948       .  S
Zn1624     O1632   2.010       .  S
Zn1624     O1635   2.010       .  S
Zn1624     O1636   1.998       .  S
O1626      C1638   1.273       .  A
O1627      C1639   1.272       .  A
O1629      C1638   1.270       .  A
O1630      C1640   1.275       .  A
O1631      C1639   1.275   1_554  A
O1632      C1641   1.272       .  A
O1633      C1642   1.271       .  A
O1634      C1641   1.273       .  A
O1635      C1642   1.271       .  A
O1636      C1643   1.272       .  A
O1637      C1643   1.272       .  A
C1640      C1778   1.467       .  S
C1642      C1694   1.457       .  S
Zn1644     O1648   1.960       .  S
Zn1644     O1649   2.014       .  S
Zn1644     O1653   2.011   1_556  S
Zn1644     O1660   2.015       .  S
Zn1645     O2242   1.969       .  S
Zn1645     O1650   2.031       .  S
Zn1645     O1652   2.034       .  S
Zn1645     O1656   2.019       .  S
Zn1646     O1648   1.966       .  S
Zn1646     O1651   2.024       .  S
Zn1646     O2248   2.016   1_545  S
Zn1646     O1657   2.036       .  S
Zn1647     O1648   1.944       .  S
Zn1647     O1655   1.991       .  S
Zn1647     O1658   1.984       .  S
Zn1647     O1659   2.000       .  S
O1648     Zn2239   1.969   1_545  S
O1649      C2255   1.272   1_545  A
O1650      C1662   1.275       .  A
O1651      C1663   1.275   1_556  A
O1652      C1661   1.275       .  A
O1653      C1663   1.273       .  A
O1654     Zn2240   2.016       .  S
O1654      C1662   1.273       .  A
O1655      C1664   1.269       .  A
O1656      C1665   1.272       .  A
O1657      C1664   1.273       .  A
O1658      C2259   1.269   1_545  A
O1659      C1666   1.270       .  A
O1660      C1666   1.271       .  A
C1661      C1687   1.473   1_556  S
C1661      O2243   1.272       .  A
C1665      O2252   1.269       .  A
Zn1667     O1671   1.949       .  S
Zn1667     O1672   2.010       .  S
Zn1667     O1676   2.007       .  S
Zn1667     O1683   1.999       .  S
Zn1668     O1671   1.966       .  S
Zn1668     O1673   2.021       .  S
Zn1668     O1675   2.027       .  S
Zn1668     O1679   2.014       .  S
Zn1669     O1671   1.960       .  S
Zn1669     O1674   2.011       .  S
Zn1669     O1677   2.004   1_554  S
Zn1669     O1680   2.017       .  S
Zn1670     O1671   1.968       .  S
Zn1670     O1678   2.029       .  S
Zn1670     O2275   2.032       .  S
Zn1670     O1682   2.018       .  S
O1672      C1684   1.272       .  A
O1673      C1685   1.274   1_554  A
O1674      C1686   1.271       .  A
O1675      C1684   1.272       .  A
O1676      C1686   1.271       .  A
O1677      C1685   1.272       .  A
O1678      C1687   1.274       .  A
O1679      C2282   1.273       .  A
O1680      C1687   1.272       .  A
O1681     Zn2264   2.032   1_545  S
O1681      C1688   1.275       .  A
O1682      C1689   1.272       .  A
O1683      C1689   1.272       .  A
C1684      C1770   1.471       .  S
C1686      C1692   1.456       .  S
C1688      O2273   1.273   1_545  A
C1690      N1691   1.356       .  A
C1690      N1695   1.357       .  A
C1690      C1740   1.458       .  S
N1691      C1692   1.356       .  A
C1692      N1693   1.356       .  A
N1693      C1694   1.356       .  A
C1694      N1695   1.358       .  A
Zn1696     O1700   1.957       .  S
Zn1696     O1701   2.004       .  S
Zn1696     O1705   2.020       .  S
Zn1696     O1712   2.006       .  S
Zn1697     O1700   1.960       .  S
Zn1697     O1702   2.026       .  S
Zn1697     O1704   2.027   1_556  S
Zn1697     O1708   2.036       .  S
Zn1698     O1700   1.959       .  S
Zn1698     O1703   2.012       .  S
Zn1698     O1706   2.007       .  S
Zn1698     O1709   2.003       .  S
Zn1699     O1700   1.962       .  S
Zn1699     O1707   2.013       .  S
Zn1699     O1710   2.011       .  S
Zn1699     O1711   2.017       .  S
O1701      C1713   1.274   1_556  A
O1702      C1714   1.277       .  A
O1703      C1715   1.271       .  A
O1704      C1713   1.275       .  A
O1705      C1715   1.271       .  A
O1706      C1714   1.272       .  A
O1707      C1716   1.273       .  A
O1708      C1717   1.274       .  A
O1709      C1716   1.272       .  A
O1710      C1717   1.271       .  A
O1711      C1718   1.273       .  A
O1712      C1718   1.272       .  A
C1713      C1776   1.482       .  S
C1717      C1739   1.463   1_556  S
Zn1719     O1723   1.967       .  S
Zn1719     O1724   2.029       .  S
Zn1719     O1728   2.013       .  S
Zn1719     O1735   2.019       .  S
Zn1720     O1723   1.950       .  S
Zn1720     O1725   1.995       .  S
Zn1720     O1727   2.007       .  S
Zn1720     O1731   2.015       .  S
Zn1721     O1723   1.971       .  S
Zn1721     O1726   2.035       .  S
Zn1721     O1729   2.021       .  S
Zn1721     O1732   2.033       .  S
Zn1722     O1723   1.959       .  S
Zn1722     O1730   2.012       .  S
Zn1722     O1733   2.012       .  S
Zn1722     O1734   2.003   1_554  S
O1724      C1736   1.272       .  A
O1725      C1737   1.272       .  A
O1726      C1738   1.275       .  A
O1727      C1736   1.271       .  A
O1728      C1738   1.273       .  A
O1729      C1737   1.273       .  A
O1730      C1739   1.270       .  A
O1731      C1740   1.271       .  A
O1732      C1739   1.274       .  A
O1733      C1740   1.271       .  A
O1734      C1741   1.272       .  A
O1735      C1741   1.274   1_554  A
C1742      C1772   1.473       .  S
C1742      C1743   1.405       .  A
C1742      C1747   1.406       .  A
C1743      C1744   1.406       .  A
C1743      H1748   1.084       .  S
C1744      C1745   1.404       .  A
C1745      C1746   1.396       .  A
C1745      H1749   1.085       .  S
C1746      C1747   1.405       .  A
C1747      H1750   1.084       .  S
Zn1751     O1755   1.956       .  S
Zn1751     O1756   2.017       .  S
Zn1751     O1760   2.033       .  S
Zn1751     O1767   2.024       .  S
Zn1752     O1755   1.956       .  S
Zn1752     O1757   2.036       .  S
Zn1752     O1759   2.015       .  S
Zn1752     O1763   2.019       .  S
Zn1753     O1755   1.942       .  S
Zn1753     O1758   2.004       .  S
Zn1753     O1761   2.007       .  S
Zn1753     O1764   1.989       .  S
Zn1754     O1755   1.974       .  S
Zn1754     O1762   2.039       .  S
Zn1754     O1765   2.042       .  S
Zn1754     O1766   2.042       .  S
O1756      C1768   1.274       .  A
O1757      C1769   1.274       .  A
O1758      C1770   1.271       .  A
O1759      C1768   1.274       .  A
O1760      C1770   1.274       .  A
O1761      C1769   1.271       .  A
O1762      C1771   1.275       .  A
O1763      C1772   1.274       .  A
O1764      C1771   1.271       .  A
O1765      C1772   1.276       .  A
O1766      C1773   1.276       .  A
O1767      C1773   1.274       .  A
C1773      C1774   1.475       .  S
C1774      C1775   1.406       .  A
C1774      C1779   1.406       .  A
C1775      C1776   1.407       .  A
C1775      H1780   1.084       .  S
C1776      C1777   1.404       .  A
C1777      C1778   1.397       .  A
C1777      H1781   1.085       .  S
C1778      C1779   1.405       .  A
C1779      H1782   1.084       .  S
C1783      N1784   1.356       .  A
C1783      N1788   1.354       .  A
C1783      C2064   1.460   1_565  S
N1784      C1785   1.359       .  A
C1785      N1786   1.358       .  A
N1786      C1787   1.356       .  A
C1787      N1788   1.354       .  A
C1787      C2259   1.452       .  S
C1789      N1790   1.358       .  A
C1789      N1794   1.351       .  A
C1789      C2283   1.456       .  S
N1790      C1791   1.361       .  A
C1791      N1792   1.360       .  A
C1791      C1982   1.459       .  S
N1792      C1793   1.357       .  A
C1793      N1794   1.351       .  A
C1793      C2088   1.455       .  S
C1795      N1796   1.352       .  A
C1795      N1800   1.357       .  A
C1795      C2141   1.456       .  S
N1796      C1797   1.352       .  A
C1797      N1798   1.357       .  A
C1797      C2331   1.456       .  S
N1798      C1799   1.359       .  A
C1799      N1800   1.359       .  A
C1799      C2365   1.456       .  S
C1801      N1802   1.354       .  A
C1801      N1806   1.357       .  A
C1801      C2310   1.461       .  S
N1802      C1803   1.354       .  A
C1803      N1804   1.359       .  A
C1803      C2117   1.464       .  S
N1804      C1805   1.360       .  A
C1805      N1806   1.357       .  A
C1805      C2172   1.457       .  S
C1807      N1808   1.360       .  A
C1807      N1812   1.358       .  A
N1808      C1809   1.358       .  A
C1809      N1810   1.353       .  A
N1810      C1811   1.354       .  A
C1811      N1812   1.356       .  A
C1813      N1814   1.361       .  A
C1813      N1818   1.359       .  A
C1813      C1857   1.459       .  S
N1814      C1815   1.358       .  A
C1815      N1816   1.351       .  A
C1815      C2237   1.457       .  S
N1816      C1817   1.351       .  A
C1817      N1818   1.356       .  A
C1817      C2042   1.454       .  S
C1819      N1820   1.356       .  A
C1819      C1984   1.456       .  S
C1821      N1822   1.357       .  A
C1821      C2362   1.457       .  S
C1823      N1824   1.356       .  A
C1823      C1860   1.457       .  S
C1825      N1830   1.357       .  A
N1826      C1827   1.357       .  A
C1827      C2176   1.458       .  S
N1828      C1829   1.356       .  A
C1831      C1858   1.474       .  S
C1831      C1832   1.406       .  A
C1831      C1836   1.405       .  A
C1832      C1833   1.407       .  A
C1832      H1837   1.084       .  S
C1833      C2213   1.483       .  S
C1833      C1834   1.404       .  A
C1834      C1835   1.397       .  A
C1834      H1838   1.084       .  S
C1835      C2282   1.467       .  S
C1835      C1836   1.405       .  A
C1836      H1839   1.084       .  S
Zn1840     O1844   1.941       .  S
Zn1840     O1845   1.992       .  S
Zn1840     O1849   2.003       .  S
Zn1840     O1856   2.007       .  S
Zn1841     O1844   1.975       .  S
Zn1841     O1848   2.043       .  S
Zn1842     O1844   1.958       .  S
Zn1842     O1847   2.034       .  S
Zn1842     O1850   2.021       .  S
Zn1842     O1853   2.018       .  S
Zn1843     O1844   1.959       .  S
Zn1843     O1851   2.015       .  S
Zn1843     O1854   2.013       .  S
Zn1843     O1855   2.037       .  S
O1845      C1857   1.271       .  A
O1846      C1858   1.276       .  A
O1847      C1859   1.274       .  A
O1848      C1857   1.275       .  A
O1849      C1859   1.271       .  A
O1851      C1860   1.273       .  A
O1852      C1861   1.277       .  A
O1853      C1860   1.274       .  A
O1855      C1862   1.274       .  A
O1856      C1862   1.272       .  A
C1859      C2330   1.471       .  S
C1861      C1863   1.472       .  S
C1862      C2142   1.472       .  S
C1863      C1864   1.404       .  A
C1863      C1868   1.407       .  A
C1864      C1865   1.400       .  A
C1864      H1869   1.085       .  S
C1865      C2023   1.461       .  S
C1865      C1866   1.397       .  A
C1866      C1867   1.398       .  A
C1866      H1870   1.085       .  S
C1867      C2090   1.465       .  S
C1867      C1868   1.407       .  A
C1868      H1871   1.083       .  S
C1872      C1900   1.473       .  S
C1872      C1873   1.406       .  A
C1872      C1877   1.403       .  A
C1873      C1874   1.413       .  A
C1873      H1878   1.083       .  S
C1874      C2068   1.483       .  S
C1874      C1875   1.403       .  A
C1875      C1876   1.397       .  A
C1875      H1879   1.084       .  S
C1876      C2046   1.461       .  S
C1876      C1877   1.399       .  A
C1877      H1880   1.084       .  S
Zn1881     O1886   2.054       .  S
Zn1881     O1890   2.047       .  S
Zn1881     O1897   2.044       .  S
Zn1882     O1885   1.948       .  S
Zn1882     O1887   2.009   1_655  S
Zn1882     O1893   2.023       .  S
Zn1883     O1885   1.948       .  S
Zn1883     O1891   2.011   1_655  S
Zn1883     O1894   2.025       .  S
Zn1884     O1885   1.946       .  S
Zn1884     O1892   2.007       .  S
Zn1884     O1895   2.012       .  S
Zn1884     O1896   1.983       .  S
O1886      C1898   1.278       .  A
O1887      C1899   1.272       .  A
O1888      C1900   1.274       .  A
O1889      C1898   1.273       .  A
O1890      C1900   1.277       .  A
O1891      C1899   1.272       .  A
O1892      C1901   1.270       .  A
O1893      C1902   1.272       .  A
O1894      C1901   1.272       .  A
O1895      C1902   1.271       .  A
O1896      C1903   1.270   1_655  A
C1898      C1904   1.474       .  S
C1901      C2120   1.459       .  S
C1902      C2309   1.460       .  S
C1904      C1905   1.404       .  A
C1904      C1909   1.408       .  A
C1905      C1906   1.400       .  A
C1905      H1910   1.085       .  S
C1906      C2233   1.461       .  S
C1906      C1907   1.397       .  A
C1907      C1908   1.398       .  A
C1907      H1911   1.085       .  S
C1908      C2256   1.467       .  S
C1908      C1909   1.409       .  A
C1909      H1912   1.083       .  S
C1913      C1943   1.488       .  S
C1913      C1914   1.410       .  A
C1913      C1918   1.409       .  A
C1914      C1915   1.413       .  A
C1914      H1919   1.083       .  S
C1915      C2116   1.483       .  S
C1915      C1916   1.403       .  A
C1916      C1917   1.395       .  A
C1916      H1920   1.084       .  S
C1917      C2092   1.463       .  S
C1917      C1918   1.397       .  A
C1918      H1921   1.084       .  S
Zn1922     O1926   1.953       .  S
Zn1922     O1927   2.005       .  S
Zn1922     O1931   2.013       .  S
Zn1922     O1938   2.018       .  S
Zn1923     O1928   2.058       .  S
Zn1923     O1930   2.023       .  S
Zn1923     O1934   2.057       .  S
Zn1924     O1926   1.950       .  S
Zn1924     O1929   2.021       .  S
Zn1924     O1935   2.011       .  S
Zn1925     O1926   1.943       .  S
Zn1925     O1933   1.997       .  S
Zn1925     O1937   2.019       .  S
O1927      C1939   1.273       .  A
O1928      C1940   1.279       .  A
O1929      C1941   1.272       .  A
O1931      C1941   1.273       .  A
O1932      C1940   1.273       .  A
O1933      C1942   1.271       .  A
O1934      C1943   1.279       .  A
O1935      C1942   1.272       .  A
O1936      C1943   1.274       .  A
O1937      C1944   1.271       .  A
O1938      C1944   1.272       .  A
C1940      C1945   1.488       .  S
C1941      C2214   1.469       .  S
C1944      C2021   1.461       .  S
C1945      C1946   1.408       .  A
C1945      C1950   1.410       .  A
C1946      C1947   1.395       .  A
C1946      H1951   1.084       .  S
C1947      C2279   1.462       .  S
C1947      C1948   1.394       .  A
C1948      C1949   1.403       .  A
C1948      H1952   1.084       .  S
C1949      C2308   1.482       .  S
C1949      C1950   1.414       .  A
C1950      H1953   1.083       .  S
C1954      C1983   1.473       .  S
C1954      C1955   1.404       .  A
C1954      C1959   1.407       .  A
C1955      C1956   1.400       .  A
C1955      H1960   1.085       .  S
C1956      C2257   1.463       .  S
C1956      C1957   1.398       .  A
C1957      C1958   1.399       .  A
C1957      H1961   1.085       .  S
C1958      C2332   1.468       .  S
C1958      C1959   1.408       .  A
C1959      H1962   1.084       .  S
Zn1963     O1967   1.941       .  S
Zn1963     O1968   2.004       .  S
Zn1963     O1972   1.991       .  S
Zn1963     O1979   2.007       .  S
Zn1964     O1967   1.959       .  S
Zn1964     O1969   2.020       .  S
Zn1964     O1971   2.036       .  S
Zn1964     O1975   2.016       .  S
Zn1965     O1967   1.976   1_545  S
Zn1965     O1970   2.045   1_545  S
Zn1966     O1967   1.959       .  S
Zn1966     O1974   2.018       .  S
Zn1966     O1977   2.014       .  S
Zn1966     O1978   2.039       .  S
O1968      C1980   1.271       .  A
O1970      C1982   1.275       .  A
O1971      C1980   1.274       .  A
O1972      C1982   1.271       .  A
O1973      C1981   1.276       .  A
O1975      C1984   1.274       .  A
O1976      C1983   1.276       .  A
O1977      C1984   1.273       .  A
O1978      C1985   1.274       .  A
O1979      C1985   1.271       .  A
C1980      C2043   1.471       .  S
C1981      C1986   1.474       .  S
C1985      C2235   1.473       .  S
C1986      C1987   1.406       .  A
C1986      C1991   1.405       .  A
C1987      C1988   1.406       .  A
C1987      H1992   1.084       .  S
C1988      C2144   1.467       .  S
C1988      C1989   1.397       .  A
C1989      C1990   1.403       .  A
C1989      H1993   1.085       .  S
C1990      C2067   1.481       .  S
C1990      C1991   1.406       .  A
C1991      H1994   1.084       .  S
C1995      N1996   1.358       .  A
C1995      N2000   1.360       .  A
C1995      C2119   1.469       .  S
N1996      C1997   1.357       .  A
C1997      N1998   1.358       .  A
C1997      C2066   1.467       .  S
N1998      C1999   1.357       .  A
C1999      N2000   1.359       .  A
C1999      C2020   1.462       .  S
Zn2001     O2005   1.961       .  S
Zn2001     O2006   2.011       .  S
Zn2001     O2010   2.020       .  S
Zn2001     O2017   2.004       .  S
Zn2002     O2007   2.020       .  S
Zn2002     O2009   2.031       .  S
Zn2002     O2013   2.036       .  S
Zn2003     O2005   1.952       .  S
Zn2003     O2008   2.020       .  S
Zn2003     O2011   2.003       .  S
Zn2003     O2014   2.013       .  S
Zn2004     O2005   1.967       .  S
Zn2004     O2012   2.022       .  S
Zn2004     O2016   2.024       .  S
O2008      C2020   1.272       .  A
O2009      C2018   1.275       .  A
O2010      C2020   1.272       .  A
O2011      C2019   1.273       .  A
O2012      C2021   1.271       .  A
O2013      C2022   1.275       .  A
O2014      C2021   1.271       .  A
O2015      C2022   1.272       .  A
O2016      C2023   1.275       .  A
O2017      C2023   1.272       .  A
C2018      C2045   1.472       .  S
C2022      C2149   1.468       .  S
Zn2024     O2028   1.965       .  S
Zn2024     O2029   2.008       .  S
Zn2024     O2033   2.030       .  S
Zn2024     O2040   2.018       .  S
Zn2025     O2028   1.969       .  S
Zn2025     O2030   2.016       .  S
Zn2025     O2036   2.033       .  S
Zn2026     O2028   1.947       .  S
Zn2026     O2031   2.006       .  S
Zn2026     O2034   1.993       .  S
Zn2026     O2037   2.006       .  S
Zn2027     O2028   1.958       .  S
Zn2027     O2035   2.008       .  S
Zn2027     O2038   2.009       .  S
Zn2027     O2039   2.006       .  S
O2030      C2042   1.272       .  A
O2031      C2043   1.271       .  A
O2032      C2041   1.276       .  A
O2033      C2043   1.272       .  A
O2034      C2042   1.271       .  A
O2035      C2044   1.271       .  A
O2036      C2045   1.275       .  A
O2037      C2044   1.271       .  A
O2038      C2045   1.271       .  A
O2039      C2046   1.272       .  A
O2040      C2046   1.274       .  A
C2041      C2340   1.466       .  S
C2044      C2095   1.454       .  S
Zn2047     O2051   1.962       .  S
Zn2047     O2052   2.008       .  S
Zn2047     O2056   2.008       .  S
Zn2047     O2063   2.010       .  S
Zn2048     O2051   1.957       .  S
Zn2048     O2053   2.009       .  S
Zn2049     O2051   1.959       .  S
Zn2049     O2054   2.018       .  S
Zn2049     O2057   2.028       .  S
Zn2049     O2060   2.005       .  S
Zn2050     O2061   2.033       .  S
Zn2050     O2062   2.040       .  S
O2053      C2065   1.270       .  A
O2054      C2066   1.273       .  A
O2055      C2064   1.272   1_565  A
O2056      C2066   1.272       .  A
O2057      C2065   1.272       .  A
O2058      C2067   1.275       .  A
O2059      C2068   1.271       .  A
O2060      C2067   1.274       .  A
O2061      C2068   1.278       .  A
O2062      C2069   1.275       .  A
C2065      C2174   1.462       .  S
C2069      C2089   1.465       .  S
Zn2070     O2074   1.960       .  S
Zn2070     O2075   2.007       .  S
Zn2070     O2079   2.015       .  S
Zn2070     O2086   2.012       .  S
Zn2071     O2074   1.948       .  S
Zn2071     O2076   1.995       .  S
Zn2071     O2078   2.003       .  S
Zn2071     O2082   2.010       .  S
Zn2072     O2074   1.971       .  S
Zn2072     O2077   2.034       .  S
Zn2072     O2080   2.020       .  S
Zn2073     O2074   1.964       .  S
Zn2073     O2081   2.010       .  S
Zn2073     O2084   2.031       .  S
Zn2073     O2085   2.017       .  S
O2075      C2087   1.271       .  A
O2076      C2088   1.271       .  A
O2077      C2089   1.274       .  A
O2078      C2087   1.270       .  A
O2079      C2089   1.271       .  A
O2080      C2088   1.272       .  A
O2082      C2091   1.271       .  A
O2083      C2090   1.276       .  A
O2084      C2091   1.272       .  A
O2085      C2092   1.274       .  A
O2086      C2092   1.273       .  A
C2087      C2097   1.453       .  S
C2091      C2363   1.472       .  S
C2093      N2094   1.357       .  A
C2093      N2098   1.356       .  A
C2093      C2140   1.455       .  S
N2094      C2095   1.357       .  A
C2095      N2096   1.355       .  A
N2096      C2097   1.355       .  A
C2097      N2098   1.356       .  A
Zn2099     O2103   1.961       .  S
Zn2099     O2104   2.027       .  S
Zn2099     O2108   2.035       .  S
Zn2099     O2115   2.027       .  S
Zn2100     O2103   1.959       .  S
Zn2100     O2105   2.009       .  S
Zn2100     O2107   2.010       .  S
Zn2100     O2111   2.015       .  S
Zn2101     O2103   1.961       .  S
Zn2101     O2106   2.006       .  S
Zn2101     O2109   2.017       .  S
Zn2101     O2112   2.019       .  S
Zn2102     O2103   1.959       .  S
Zn2102     O2110   2.014       .  S
Zn2102     O2113   2.017       .  S
Zn2102     O2114   1.997       .  S
O2104      C2116   1.277       .  A
O2105      C2117   1.274       .  A
O2106      C2118   1.270       .  A
O2107      C2116   1.272       .  A
O2108      C2118   1.274       .  A
O2109      C2117   1.273       .  A
O2110      C2119   1.272       .  A
O2111      C2120   1.271       .  A
O2112      C2119   1.274       .  A
O2113      C2120   1.271       .  A
O2114      C2121   1.273       .  A
O2115      C2121   1.275       .  A
C2118      C2139   1.462       .  S
C2121      C2338   1.480       .  S
Zn2122     O2126   1.970       .  S
Zn2122     O2127   2.028       .  S
Zn2122     O2131   2.017       .  S
Zn2122     O2138   2.031       .  S
Zn2123     O2126   1.961       .  S
Zn2123     O2128   2.013       .  S
Zn2123     O2130   2.015       .  S
Zn2123     O2134   2.013       .  S
Zn2124     O2126   1.948       .  S
Zn2124     O2129   1.997       .  S
Zn2124     O2132   2.006       .  S
Zn2124     O2135   2.003       .  S
Zn2125     O2126   1.966       .  S
Zn2125     O2133   2.035       .  S
Zn2125     O2136   2.024       .  S
Zn2125     O2137   2.013       .  S
O2127      C2139   1.273       .  A
O2128      C2140   1.271       .  A
O2129      C2141   1.271       .  A
O2130      C2139   1.271       .  A
O2131      C2141   1.272       .  A
O2132      C2140   1.271       .  A
O2133      C2142   1.273       .  A
O2134      C2143   1.273       .  A
O2135      C2142   1.271       .  A
O2136      C2143   1.275       .  A
O2137      C2144   1.273       .  A
O2138      C2144   1.275       .  A
C2143      C2147   1.464       .  S
C2145      C2175   1.476       .  S
C2145      C2146   1.406       .  A
C2145      C2150   1.408       .  A
C2146      C2147   1.402       .  A
C2146      H2151   1.084       .  S
C2147      C2148   1.397       .  A
C2148      C2149   1.397       .  A
C2148      H2152   1.085       .  S
C2149      C2150   1.408       .  A
C2150      H2153   1.084       .  S
Zn2154     O2158   1.959       .  S
Zn2154     O2159   2.009       .  S
Zn2154     O2163   2.029       .  S
Zn2154     O2170   2.018       .  S
Zn2155     O2158   1.973       .  S
Zn2155     O2160   2.043       .  S
Zn2155     O2162   2.053       .  S
Zn2155     O2166   2.047       .  S
Zn2156     O2158   1.945       .  S
Zn2156     O2161   2.004       .  S
Zn2156     O2164   1.985       .  S
Zn2156     O2167   2.004       .  S
Zn2157     O2158   1.955       .  S
Zn2157     O2165   2.034       .  S
Zn2157     O2168   2.025       .  S
Zn2157     O2169   2.016       .  S
O2159      C2171   1.273       .  A
O2160      C2172   1.276       .  A
O2161      C2173   1.272       .  A
O2162      C2171   1.277       .  A
O2163      C2173   1.273       .  A
O2164      C2172   1.269       .  A
O2165      C2174   1.273       .  A
O2166      C2175   1.277       .  A
O2167      C2174   1.269       .  A
O2168      C2175   1.275       .  A
O2169      C2176   1.273       .  A
O2170      C2176   1.273       .  A
C2171      C2177   1.473       .  S
C2173      C2258   1.469       .  S
C2177      C2178   1.405       .  A
C2177      C2182   1.403       .  A
C2178      C2179   1.413       .  A
C2178      H2183   1.084       .  S
C2179      C2209   1.481       .  S
C2179      C2180   1.402       .  A
C2180      C2181   1.396       .  A
C2180      H2184   1.084       .  S
C2181      C2335   1.460       .  S
C2181      C2182   1.399       .  A
C2182      H2185   1.084       .  S
C2186      N2187   1.358       .  A
C2186      N2191   1.357       .  A
C2186      C2312   1.466       .  S
N2187      C2188   1.359       .  A
C2188      N2189   1.358       .  A
C2188      C2212   1.467       .  S
N2189      C2190   1.357       .  A
C2190      N2191   1.356       .  A
C2190      C2260   1.455       .  S
Zn2192     O2196   1.953       .  S
Zn2192     O2201   1.995       .  S
Zn2192     O2208   1.997       .  S
Zn2193     O2196   1.961       .  S
Zn2193     O2204   2.029   1_556  S
Zn2194     O2196   1.962       .  S
Zn2194     O2199   2.015       .  S
Zn2194     O2202   2.007       .  S
Zn2194     O2205   2.012       .  S
Zn2195     O2196   1.959       .  S
Zn2195     O2203   2.016       .  S
Zn2195     O2206   2.007       .  S
Zn2195     O2207   2.033       .  S
O2197      C2209   1.270       .  A
O2198      C2210   1.274       .  A
O2199      C2211   1.272       .  A
O2200      C2209   1.277       .  A
O2201      C2211   1.271       .  A
O2203      C2212   1.273       .  A
O2204      C2213   1.275       .  A
O2205      C2212   1.273       .  A
O2206      C2213   1.274   1_556  A
O2207      C2214   1.274       .  A
O2208      C2214   1.270       .  A
C2210      C2232   1.461   1_556  S
Zn2215     O2219   1.971       .  S
Zn2215     O2220   2.027       .  S
Zn2215     O2231   2.019       .  S
Zn2216     O2219   1.960       .  S
Zn2216     O2221   2.003   1_554  S
Zn2216     O2223   2.010       .  S
Zn2216     O2227   2.014       .  S
Zn2217     O2219   1.968       .  S
Zn2217     O2222   2.015       .  S
Zn2217     O2225   2.026       .  S
Zn2217     O2228   2.035       .  S
Zn2218     O2219   1.948       .  S
Zn2218     O2226   2.010       .  S
Zn2218     O2229   2.010       .  S
Zn2218     O2230   1.998       .  S
O2220      C2232   1.273       .  A
O2221      C2233   1.272       .  A
O2223      C2232   1.270       .  A
O2224      C2234   1.275       .  A
O2225      C2233   1.275   1_554  A
O2226      C2235   1.272       .  A
O2227      C2236   1.271       .  A
O2228      C2235   1.273       .  A
O2229      C2236   1.271       .  A
O2230      C2237   1.272       .  A
O2231      C2237   1.272       .  A
C2234      C2372   1.467       .  S
C2236      C2288   1.457       .  S
Zn2238     O2242   1.960       .  S
Zn2238     O2243   2.014       .  S
Zn2238     O2247   2.011   1_556  S
Zn2238     O2254   2.015       .  S
Zn2239     O2244   2.031       .  S
Zn2239     O2246   2.034       .  S
Zn2239     O2250   2.019       .  S
Zn2240     O2242   1.966       .  S
Zn2240     O2245   2.024       .  S
Zn2240     O2251   2.036       .  S
Zn2241     O2242   1.944       .  S
Zn2241     O2249   1.991       .  S
Zn2241     O2252   1.984       .  S
Zn2241     O2253   2.000       .  S
O2244      C2256   1.275       .  A
O2245      C2257   1.275   1_556  A
O2246      C2255   1.275       .  A
O2247      C2257   1.273       .  A
O2248      C2256   1.273       .  A
O2249      C2258   1.269       .  A
O2250      C2259   1.272       .  A
O2251      C2258   1.273       .  A
O2253      C2260   1.270       .  A
O2254      C2260   1.271       .  A
C2255      C2281   1.473   1_556  S
Zn2261     O2265   1.949       .  S
Zn2261     O2266   2.010       .  S
Zn2261     O2270   2.007       .  S
Zn2261     O2277   1.999       .  S
Zn2262     O2265   1.966       .  S
Zn2262     O2267   2.021       .  S
Zn2262     O2269   2.027       .  S
Zn2262     O2273   2.014       .  S
Zn2263     O2265   1.960       .  S
Zn2263     O2268   2.011       .  S
Zn2263     O2271   2.004   1_554  S
Zn2263     O2274   2.017       .  S
Zn2264     O2265   1.968       .  S
Zn2264     O2272   2.029       .  S
Zn2264     O2276   2.018       .  S
O2266      C2278   1.272       .  A
O2267      C2279   1.274   1_554  A
O2268      C2280   1.271       .  A
O2269      C2278   1.272       .  A
O2270      C2280   1.271       .  A
O2271      C2279   1.272       .  A
O2272      C2281   1.274       .  A
O2274      C2281   1.272       .  A
O2275      C2282   1.275       .  A
O2276      C2283   1.272       .  A
O2277      C2283   1.272       .  A
C2278      C2364   1.471       .  S
C2280      C2286   1.456       .  S
C2284      N2285   1.356       .  A
C2284      N2289   1.357       .  A
C2284      C2334   1.458       .  S
N2285      C2286   1.356       .  A
C2286      N2287   1.356       .  A
N2287      C2288   1.356       .  A
C2288      N2289   1.358       .  A
Zn2290     O2294   1.957       .  S
Zn2290     O2295   2.004       .  S
Zn2290     O2299   2.020       .  S
Zn2290     O2306   2.006       .  S
Zn2291     O2294   1.960       .  S
Zn2291     O2296   2.026       .  S
Zn2291     O2298   2.027   1_556  S
Zn2291     O2302   2.036       .  S
Zn2292     O2294   1.959       .  S
Zn2292     O2297   2.012       .  S
Zn2292     O2300   2.007       .  S
Zn2292     O2303   2.003       .  S
Zn2293     O2294   1.962       .  S
Zn2293     O2301   2.013       .  S
Zn2293     O2304   2.011       .  S
Zn2293     O2305   2.017       .  S
O2295      C2307   1.274   1_556  A
O2296      C2308   1.277       .  A
O2297      C2309   1.271       .  A
O2298      C2307   1.275       .  A
O2299      C2309   1.271       .  A
O2300      C2308   1.272       .  A
O2301      C2310   1.273       .  A
O2302      C2311   1.274       .  A
O2303      C2310   1.272       .  A
O2304      C2311   1.271       .  A
O2305      C2312   1.273       .  A
O2306      C2312   1.272       .  A
C2307      C2370   1.482       .  S
C2311      C2333   1.463   1_556  S
Zn2313     O2317   1.967       .  S
Zn2313     O2318   2.029       .  S
Zn2313     O2322   2.013       .  S
Zn2313     O2329   2.019       .  S
Zn2314     O2317   1.950       .  S
Zn2314     O2319   1.995       .  S
Zn2314     O2321   2.007       .  S
Zn2314     O2325   2.015       .  S
Zn2315     O2317   1.971       .  S
Zn2315     O2320   2.035       .  S
Zn2315     O2323   2.021       .  S
Zn2315     O2326   2.033       .  S
Zn2316     O2317   1.959       .  S
Zn2316     O2324   2.012       .  S
Zn2316     O2327   2.012       .  S
Zn2316     O2328   2.003   1_554  S
O2318      C2330   1.272       .  A
O2319      C2331   1.272       .  A
O2320      C2332   1.275       .  A
O2321      C2330   1.271       .  A
O2322      C2332   1.273       .  A
O2323      C2331   1.273       .  A
O2324      C2333   1.270       .  A
O2325      C2334   1.271       .  A
O2326      C2333   1.274       .  A
O2327      C2334   1.271       .  A
O2328      C2335   1.272       .  A
O2329      C2335   1.274   1_554  A
C2336      C2366   1.473       .  S
C2336      C2337   1.405       .  A
C2336      C2341   1.406       .  A
C2337      C2338   1.406       .  A
C2337      H2342   1.084       .  S
C2338      C2339   1.404       .  A
C2339      C2340   1.396       .  A
C2339      H2343   1.085       .  S
C2340      C2341   1.405       .  A
C2341      H2344   1.084       .  S
Zn2345     O2349   1.956       .  S
Zn2345     O2350   2.017       .  S
Zn2345     O2354   2.033       .  S
Zn2345     O2361   2.024       .  S
Zn2346     O2349   1.956       .  S
Zn2346     O2351   2.036       .  S
Zn2346     O2353   2.015       .  S
Zn2346     O2357   2.019       .  S
Zn2347     O2349   1.942       .  S
Zn2347     O2352   2.004       .  S
Zn2347     O2355   2.007       .  S
Zn2347     O2358   1.989       .  S
Zn2348     O2349   1.974       .  S
Zn2348     O2356   2.039       .  S
Zn2348     O2359   2.042       .  S
Zn2348     O2360   2.042       .  S
O2350      C2362   1.274       .  A
O2351      C2363   1.274       .  A
O2352      C2364   1.271       .  A
O2353      C2362   1.274       .  A
O2354      C2364   1.274       .  A
O2355      C2363   1.271       .  A
O2356      C2365   1.275       .  A
O2357      C2366   1.274       .  A
O2358      C2365   1.271       .  A
O2359      C2366   1.276       .  A
O2360      C2367   1.276       .  A
O2361      C2367   1.274       .  A
C2367      C2368   1.475       .  S
C2368      C2369   1.406       .  A
C2368      C2373   1.406       .  A
C2369      C2370   1.407       .  A
C2369      H2374   1.084       .  S
C2370      C2371   1.404       .  A
C2371      C2372   1.397       .  A
C2371      H2375   1.085       .  S
C2372      C2373   1.405       .  A
C2373      H2376   1.084       .  S
