geometry optimzed in LAMMPS
_audit_creation_date              2020-12-01 
_audit_creation_method            'lammps2cif' 
_symmetry_space_group_name_H-M    'P1' 
_symmetry_Int_Tables_number       1 
_symmetry_cell_setting            triclinic 
loop_ 
_symmetry_equiv_pos_as_xyz 
  x,y,z 
_cell_length_a                    35.63858031 
_cell_length_b                    35.59185543605556 
_cell_length_c                    42.63957606911421 
_cell_angle_alpha                 90.4215348768949 
_cell_angle_beta                  89.91379163059565 
_cell_angle_gamma                 120.07157770542447 
loop_ 
_atom_site_label 
_atom_site_type_symbol 
_atom_site_fract_x 
_atom_site_fract_y 
_atom_site_fract_z 
_atom_site_charge 
O1          O  0.77451637  0.66681558  0.31744627    -0.71700
O2          O  0.89223073  0.72385149  0.34285242    -0.71900
O3          O  0.85018929  0.69842952  0.28753065    -0.71700
O4          O  0.81712844  0.69260872  0.37279257    -0.71800
O5          O  0.81381480  0.63031213  0.37716094    -0.71700
O6          O  0.84663482  0.63598967  0.29141799    -0.71700
O7          O  0.88939914  0.66178705  0.34702953    -0.71700
O8          O  0.77125387  0.60458479  0.32179265    -0.71900
V9          V  0.83341765  0.69415441  0.33019767     1.35200
V10         V  0.83033987  0.63433223  0.33425095     1.35200
C11         C  0.75288827  0.62593416  0.31473395     0.77600
C12         C  0.91062078  0.70263864  0.35018950     0.77600
C13         C  0.85311863  0.66790141  0.27463442     0.77500
C14         C  0.81134075  0.66127102  0.38987049     0.77500
O15         O  0.10196561  0.83506588  0.40949260    -0.71700
O16         O  0.22062046  0.89932511  0.43322053    -0.71900
O17         O  0.17580100  0.88232690  0.37839655    -0.71700
O18         O  0.14607431  0.85176444  0.46390908    -0.71800
O19         O  0.15239316  0.79466410  0.45697884    -0.71700
O20         O  0.18169105  0.82494781  0.37169795    -0.71700
O21         O  0.22589742  0.84176993  0.42598098    -0.71700
O22         O  0.10743272  0.77754448  0.40272038    -0.71900
V23         V  0.16128515  0.86607762  0.42110926     1.35200
V24         V  0.16670425  0.81086698  0.41444125     1.35200
C25         C  0.08463619  0.79558630  0.40143151     0.77600
C26         C  0.24317450  0.88100612  0.43465500     0.77600
C27         C  0.18249613  0.85800524  0.36025256     0.77500
C28         C  0.14553089  0.81872291  0.47520219     0.77500
O29         O  0.55852426  0.06007128  0.01281973    -0.71700
O30         O  0.43972470  0.00497648  0.48853653    -0.71900
O31         O  0.48380648  0.02913362  0.04336009    -0.71700
O32         O  0.51507673  0.03645515  0.45792910    -0.71800
O33         O  0.51056906  0.97349641  0.46049400    -0.71700
O34         O  0.47954495  0.96628220  0.04633456    -0.71700
O35         O  0.43572456  0.94227017  0.49150927    -0.71700
O36         O  0.55427444  0.99720473  0.01539285    -0.71900
V37         V  0.49935726  0.03158921  0.00058945     1.35200
V38         V  0.49527361  0.97118169  0.00326403     1.35200
C39         C  0.57633876  0.03789376  0.01899214     0.77600
C40         C  0.41770264  0.96416449  0.48523833     0.77600
C41         C  0.47803958  0.99730817  0.05982115     0.77500
C42         C  0.51765139  0.00613137  0.44437336     0.77500
O43         O  0.22474553  0.38978641  0.17645463    -0.71700
O44         O  0.10653791  0.33265369  0.15200280    -0.71900
O45         O  0.14984643  0.35856605  0.20704043    -0.71700
O46         O  0.18153764  0.36404906  0.12149874    -0.71800
O47         O  0.17883492  0.30198896  0.12569070    -0.71700
O48         O  0.14535219  0.29566159  0.21101240    -0.71700
O49         O  0.10360292  0.27041549  0.15536408    -0.71700
O50         O  0.22136516  0.32754590  0.18125177    -0.71900
V51         V  0.16559217  0.36003917  0.16434959     1.35200
V52         V  0.16241537  0.30013196  0.16830312     1.35200
C53         C  0.24306754  0.36846714  0.18372879     0.77600
C54         C  0.08532806  0.29188328  0.14845479     0.77600
C55         C  0.14307776  0.32663346  0.22381359     0.77500
C56         C  0.18404168  0.33322101  0.10870704     0.77500
O57         O  0.89048097  0.22352468  0.09539542    -0.71700
O58         O  0.77120618  0.16319882  0.07456320    -0.71900
O59         O  0.81707536  0.18067106  0.12792537    -0.71700
O60         O  0.84430510  0.20580850  0.04191004    -0.71800
O61         O  0.84702014  0.14651879  0.03639504    -0.71700
O62         O  0.81921942  0.12108368  0.12243471    -0.71700
O63         O  0.77302836  0.10356188  0.06870071    -0.71700
O64         O  0.89268016  0.16400143  0.09001405    -0.71900
V65         V  0.83083631  0.19213163  0.08484308     1.35200
V66         V  0.83288552  0.13488486  0.07947589     1.35200
C67         C  0.91179563  0.20396164  0.09698128     0.77600
C68         C  0.75186014  0.12336395  0.06738687     0.77600
C69         C  0.81456236  0.14717459  0.14003883     0.77500
C70         C  0.84947755  0.18002543  0.02433794     0.77500
O71         O  0.55590279  0.56097823  0.26371980    -0.71700
O72         O  0.43718592  0.49949064  0.23995266    -0.71900
O73         O  0.48099990  0.51723706  0.29468832    -0.71700
O74         O  0.51175610  0.54320573  0.20898240    -0.71800
O75         O  0.51558665  0.48445621  0.20422663    -0.71700
O76         O  0.48372297  0.45793519  0.28989601    -0.71700
O77         O  0.44025571  0.44041792  0.23480468    -0.71700
O78         O  0.55851009  0.50158977  0.25918245    -0.71900
V79         V  0.49652868  0.52908377  0.25176640     1.35200
V80         V  0.49941678  0.47222881  0.24710015     1.35200
C81         C  0.57723811  0.54149890  0.26622200     0.77600
C82         C  0.41873306  0.45971796  0.23248580     0.77600
C83         C  0.47813934  0.48377397  0.30718565     0.77500
C84         C  0.51809561  0.51781663  0.19179335     0.77500
O85         O  0.16579490  0.27226072  0.40641154    -0.71700
O86         O  0.10449434  0.32980731  0.43050254    -0.71900
O87         O  0.12105686  0.30206143  0.37571980    -0.71700
O88         O  0.14897403  0.29939244  0.46121553    -0.71800
O89         O  0.20709495  0.36241824  0.45645433    -0.71700
O90         O  0.18034942  0.36401667  0.37041165    -0.71700
O91         O  0.16330230  0.39185047  0.42444440    -0.71700
O92         O  0.22486616  0.33455952  0.40222914    -0.71900
V93         V  0.13619945  0.30207064  0.41838647     1.35200
V94         V  0.19277158  0.36195093  0.41345429     1.35200
C95         C  0.20564622  0.29369029  0.39953275     0.77600
C96         C  0.12389233  0.37084064  0.43227324     0.77600
C97         C  0.14649920  0.33299154  0.35827954     0.77500
C98         C  0.18186460  0.33108776  0.47372556     0.77500
O99         O  0.27734359  0.17067727  0.34353967    -0.71700
O100        O  0.33539669  0.11074872  0.31820990    -0.71900
O101        O  0.30935034  0.12741929  0.37346020    -0.71700
O102        O  0.30302087  0.15382108  0.28843477    -0.71800
O103        O  0.36511671  0.21318065  0.29276125    -0.71700
O104        O  0.37136365  0.18685097  0.37838897    -0.71700
O105        O  0.39734455  0.17014211  0.32307498    -0.71700
O106        O  0.33913408  0.23027484  0.34820146    -0.71900
V107        V  0.30754525  0.14184624  0.33100833     1.35200
V108        V  0.36706386  0.19902436  0.33553375     1.35200
C109        C  0.29828822  0.21053296  0.35082722     0.77600
C110        C  0.37620607  0.13036871  0.31555268     0.77600
C111        C  0.34075570  0.15310693  0.39070530     0.77500
C112        C  0.33344403  0.18720143  0.27573227     0.77500
O113        O  0.03186587  0.54599297  0.45971803    -0.71700
O114        O  0.03661645  0.51871509  0.04491963    -0.71900
O115        O  0.06069707  0.49986687  0.48957198    -0.71700
O116        O  0.00740916  0.56489922  0.01487908    -0.71800
O117        O  0.94453031  0.50694702  0.00883648    -0.71700
O118        O  0.99763115  0.44171215  0.48520883    -0.71700
O119        O  0.97279664  0.46154201  0.04007793    -0.71700
O120        O  0.96903230  0.48760086  0.45459513    -0.71900
V121        V  0.03328406  0.53164497  0.00218320     1.35200
V122        V  0.97258026  0.47597076  0.99728019     1.35200
C123        C  0.00026181  0.52085449  0.44235854     0.77600
C124        C  0.00486267  0.48604578  0.05729793     0.77600
C125        C  0.03830450  0.46003814  0.48236241     0.77500
C126        C  0.96653515  0.54649177  0.01664641     0.77500
O127        O  0.66107689  0.76890699  0.15466182    -0.71700
O128        O  0.60469988  0.83135955  0.17801977    -0.71900
O129        O  0.63258090  0.81486107  0.12359893    -0.71700
O130        O  0.63277072  0.78564991  0.20915614    -0.71800
O131        O  0.69580995  0.84351562  0.21539026    -0.71700
O132        O  0.69514529  0.87322117  0.13006179    -0.71700
O133        O  0.66722685  0.88948627  0.18488777    -0.71700
O134        O  0.72342612  0.82748767  0.16087518    -0.71900
V135        V  0.63401084  0.80127802  0.16645521     1.35200
V136        V  0.69415055  0.85730123  0.17268820     1.35200
C137        C  0.70198387  0.78799761  0.15284118     0.77600
C138        C  0.62633660  0.87075645  0.18637087     0.77600
C139        C  0.66421934  0.84848053  0.11204847     0.77500
C140        C  0.66380617  0.81036800  0.22707218     0.77500
O141        O  0.77010028  0.65978241  0.09826376    -0.71700
O142        O  0.83463030  0.60686840  0.07252224    -0.71900
O143        O  0.81783443  0.63206015  0.12777780    -0.71700
O144        O  0.78717941  0.63397097  0.04267300    -0.71800
O145        O  0.84464655  0.69730671  0.03710476    -0.71700
O146        O  0.87438822  0.69617763  0.12260113    -0.71700
O147        O  0.89218929  0.67020506  0.06759991    -0.71700
O148        O  0.82717763  0.72316837  0.09212393    -0.71900
V149        V  0.80350433  0.63444309  0.08520065     1.35200
V150        V  0.85848454  0.69549411  0.07993724     1.35200
C151        C  0.78799104  0.70063328  0.10039561     0.77600
C152        C  0.87413925  0.62937531  0.06513385     0.77600
C153        C  0.85074112  0.66417362  0.13990945     0.77500
C154        C  0.81160663  0.66519984  0.02503393     0.77500
O155        O  0.50366964  0.94166919  0.24396891    -0.71700
O156        O  0.44510351  0.00209771  0.26667695    -0.71900
O157        O  0.45997318  0.97177058  0.21257790    -0.71700
O158        O  0.48893650  0.97140083  0.29810512    -0.71800
O159        O  0.54787176  0.03360892  0.29218253    -0.71700
O160        O  0.51956551  0.03321980  0.20622182    -0.71700
O161        O  0.50453180  0.06355609  0.26013054    -0.71700
O162        O  0.56341327  0.00311651  0.23833716    -0.71900
V163        V  0.47556516  0.97298237  0.25525761     1.35200
V164        V  0.53273657  0.03214590  0.24928677     1.35200
C165        C  0.54335189  0.96211306  0.23668240     0.77600
C166        C  0.46506250  0.04315179  0.26794950     0.77600
C167        C  0.48544496  0.00190261  0.19461012     0.77500
C168        C  0.52259128  0.00295899  0.30990825     0.77500
O169        O  0.39152165  0.22898248  0.07433568    -0.71700
O170        O  0.33507855  0.11005895  0.09764412    -0.71900
O171        O  0.36245018  0.15432618  0.04297924    -0.71700
O172        O  0.36499427  0.18535482  0.12870471    -0.71800
O173        O  0.30180432  0.17987430  0.12347838    -0.71700
O174        O  0.30003402  0.15037857  0.03746394    -0.71700
O175        O  0.27272606  0.10598905  0.09159403    -0.71700
O176        O  0.32894439  0.22471862  0.06930331    -0.71900
V177        V  0.36228753  0.16952321  0.08580317     1.35200
V178        V  0.30213764  0.16536245  0.08053408     1.35200
C179        C  0.36975402  0.24693891  0.06724511     0.77600
C180        C  0.29413372  0.08803786  0.09948206     0.77600
C181        C  0.33144763  0.14843646  0.02533513     0.77500
C182        C  0.33326028  0.18652604  0.14091312     0.77500
O183        O  0.49769111  0.43917760  0.00979778    -0.71700
O184        O  0.55894541  0.55660884  0.48418844    -0.71900
O185        O  0.54273567  0.51473844  0.03972208    -0.71700
O186        O  0.51307326  0.48030982  0.45435537    -0.71800
O187        O  0.45529494  0.48567695  0.45949523    -0.71700
O188        O  0.48410982  0.51856094  0.04465754    -0.71700
O189        O  0.50072331  0.56093453  0.48978508    -0.71700
O190        O  0.43891602  0.44278422  0.01439134    -0.71900
V191        V  0.52727348  0.49792133  0.99704364     1.35200
V192        V  0.47110747  0.50188018  0.00192608     1.35200
C193        C  0.45820541  0.42131487  0.01744043     0.77600
C194        C  0.54025488  0.57872805  0.48211201     0.77600
C195        C  0.51756200  0.52118018  0.05701564     0.77500
C196        C  0.47997300  0.47873897  0.44210554     0.77500
O197        O  0.16407204  0.77498332  0.17766189    -0.71700
O198        O  0.22311324  0.89296495  0.15347007    -0.71900
O199        O  0.20623902  0.85044473  0.20849818    -0.71700
O200        O  0.18036643  0.81740796  0.12270060    -0.71800
O201        O  0.12044637  0.81881653  0.12716245    -0.71700
O202        O  0.14679510  0.85283806  0.21256662    -0.71700
O203        O  0.16338983  0.89482257  0.15729649    -0.71700
O204        O  0.10419634  0.77636732  0.18241273    -0.71900
V205        V  0.19225971  0.83397875  0.16566255     1.35200
V206        V  0.13481887  0.83563329  0.16979945     1.35200
C207        C  0.12443248  0.75570345  0.18497275     0.77600
C208        C  0.20328936  0.91384654  0.15041333     0.77600
C209        C  0.18037274  0.85631678  0.22540367     0.77500
C210        C  0.14660883  0.81383192  0.11001813     0.77500
O211        O  0.06155614  0.56249059  0.24070650    -0.71700
O212        O  0.00633244  0.44326715  0.26374173    -0.71900
O213        O  0.03187905  0.48793081  0.20907305    -0.71700
O214        O  0.03655328  0.51860352  0.29522155    -0.71800
O215        O  0.97397448  0.51460436  0.29071506    -0.71700
O216        O  0.96846517  0.48209841  0.20515778    -0.71700
O217        O  0.94377847  0.43947638  0.26023304    -0.71700
O218        O  0.99864141  0.55745035  0.23580216    -0.71900
V219        V  0.03287642  0.50291381  0.25211690     1.35200
V220        V  0.97247972  0.49847860  0.24802535     1.35200
C221        C  0.03941310  0.58004884  0.23355834     0.77600
C222        C  0.96555040  0.42149843  0.26703864     0.77600
C223        C  0.99985218  0.48102962  0.19217973     0.77500
C224        C  0.00567558  0.52109226  0.30778157     0.79300
O225        O  0.81924794  0.18419483  0.37749039    -0.71700
O226        O  0.79255679  0.15429222  0.29177109    -0.71900
O227        O  0.77350158  0.10951707  0.34602436    -0.71700
O228        O  0.83847637  0.22867362  0.32329795    -0.71800
O229        O  0.89603489  0.22312316  0.31783780    -0.71700
O230        O  0.83153799  0.10464643  0.34150267    -0.71700
O231        O  0.84984435  0.14803324  0.28693105    -0.71700
O232        O  0.87721753  0.17914599  0.37268853    -0.71900
V233        V  0.80706418  0.16906169  0.33454491     1.35200
V234        V  0.86256884  0.16389822  0.32983157     1.35200
C235        C  0.85190892  0.18529896  0.38999179     0.77600
C236        C  0.81723084  0.14720914  0.27452644     0.77600
C237        C  0.79180225  0.08701555  0.34851912     0.77500
C238        C  0.87807391  0.24594977  0.31579566     0.77500
O239        O  0.63211384  0.81679048  0.37432451    -0.71700
O240        O  0.63921537  0.84950562  0.46023390    -0.71900
O241        O  0.66470438  0.89265395  0.40492417    -0.71700
O242        O  0.60678089  0.77430114  0.42914147    -0.71800
O243        O  0.66857725  0.77683306  0.43385897    -0.71700
O244        O  0.72640366  0.89473641  0.40833357    -0.71700
O245        O  0.70166914  0.85314137  0.46392331    -0.71700
O246        O  0.69365378  0.81859367  0.37863634    -0.71900
V247        V  0.63693142  0.83345713  0.41727194     1.35200
V248        V  0.69638579  0.83583272  0.42115342     1.35200
C249        C  0.66217506  0.81294714  0.36166770     0.77600
C250        C  0.67104203  0.85546881  0.47702790     0.77600
C251        C  0.70541003  0.91350490  0.40129017     0.77500
C252        C  0.62768396  0.75545913  0.43610287     0.77500
C253        C  0.76845746  0.04190713  0.36072413    -0.05400
C254        C  0.79233040  0.02147893  0.36808915    -0.32800
C255        C  0.77253138  0.98029964  0.38165698     0.36500
C256        C  0.72763357  0.95807726  0.38803305    -0.05700
C257        C  0.70349264  0.97811806  0.38014085    -0.32700
C258        C  0.72347498  0.01961999  0.36676277     0.36400
H259        H  0.82690481  0.03772639  0.36375152     0.16700
O260        O  0.79751276  0.96192292  0.38802442    -0.60200
H261        H  0.66886548  0.96158826  0.38428892     0.16800
O262        O  0.69848786  0.03759133  0.35918603    -0.60300
H263        H  0.69558492  0.05075201  0.37896532     0.43700
H264        H  0.80960337  0.97263826  0.40927845     0.43700
C265        C  0.94364053  0.37669404  0.27960546    -0.05400
C266        C  0.96215140  0.35020404  0.27573269    -0.32800
C267        C  0.94167266  0.30783406  0.28770244     0.36500
C268        C  0.90208080  0.29133306  0.30415089    -0.05700
C269        C  0.88408505  0.31821156  0.30836321    -0.32700
C270        C  0.90434018  0.36030380  0.29627694     0.36400
H271        H  0.99225329  0.36210110  0.26294146     0.16700
O272        O  0.95977414  0.28234628  0.28199920    -0.60200
H273        H  0.85400515  0.30660138  0.32112928     0.16800
O274        O  0.88621792  0.38577482  0.30203672    -0.60300
H275        H  0.86328546  0.37714781  0.28588549     0.43700
H276        H  0.98183686  0.29011050  0.29871647     0.43700
C277        C  0.10277986  0.71057925  0.19703550    -0.05400
C278        C  0.05766176  0.68766564  0.20140140    -0.32800
C279        C  0.03663056  0.64558355  0.21367182     0.36500
C280        C  0.06070014  0.62538710  0.22190774    -0.05700
C281        C  0.10584226  0.64845158  0.21771763    -0.32700
C282        C  0.12682587  0.69038381  0.20532614     0.36400
H283        H  0.03842898  0.70236017  0.19526000     0.16700
O284        O  0.99242662  0.62439764  0.21698982    -0.60200
H285        H  0.12517408  0.63385224  0.22382458     0.16800
O286        O  0.17106879  0.71159686  0.20219794    -0.60300
H287        H  0.17633922  0.70199032  0.18159620     0.43700
H288        H  0.98736746  0.63300355  0.23805278     0.43700
C289        C  0.56336472  0.62391047  0.47032862    -0.05400
C290        C  0.53952568  0.64458007  0.46374202    -0.32800
C291        C  0.55979391  0.68697706  0.45233818     0.36500
C292        C  0.60499580  0.70988805  0.44717424    -0.05700
C293        C  0.62886988  0.68913923  0.45355468    -0.32700
C294        C  0.60847725  0.64652821  0.46479566     0.36400
H295        H  0.50477358  0.62780755  0.46735299     0.16700
O296        O  0.53483382  0.70545528  0.44622003    -0.60200
H297        H  0.66360777  0.70596751  0.44987528     0.16800
O298        O  0.63322382  0.62780427  0.47087900    -0.60300
H299        H  0.63598060  0.61593771  0.45043898     0.43700
H300        H  0.53273989  0.71808697  0.46651123     0.43700
C301        C  0.27136700  0.04310149  0.11184049    -0.05400
C302        C  0.22695911  0.02343732  0.11899754    -0.32800
C303        C  0.20448717  0.98185199  0.13191094     0.36500
C304        C  0.22631800  0.95882309  0.13808249    -0.05700
C305        C  0.27074658  0.97848875  0.13092555    -0.32700
C306        C  0.29326589  0.02018769  0.11811586     0.36400
H307        H  0.20939660  0.04048169  0.11483275     0.16700
O308        O  0.16126000  0.96433914  0.13856523    -0.60200
H309        H  0.28831336  0.96146830  0.13516134     0.16800
O310        O  0.33645211  0.03773595  0.11130546    -0.60300
H311        H  0.35185448  0.05046769  0.13135205     0.43700
H312        H  0.14591946  0.95047549  0.11871237     0.43700
C313        C  0.43562551  0.37695106  0.03052278    -0.05400
C314        C  0.39019971  0.35222033  0.02957832    -0.32800
C315        C  0.36816296  0.31030029  0.04204801     0.36500
C316        C  0.39160173  0.29230137  0.05584772    -0.05700
C317        C  0.43698962  0.31754823  0.05743703    -0.32700
C318        C  0.45897050  0.35938644  0.04497172     0.36400
H319        H  0.37162433  0.36518562  0.01876233     0.16700
O320        O  0.32384059  0.28679487  0.03955754    -0.60200
H321        H  0.45573693  0.30480796  0.06829232     0.16800
O322        O  0.50271645  0.38386813  0.54896492    -0.60300
H323        H  0.51480917  0.37435334  0.53170359     0.43700
H324        H  0.31293870  0.29541868  0.05807071     0.43700
C325        C  0.66176419  0.80483412  0.32749861    -0.05400
C326        C  0.62270750  0.78767719  0.31060303    -0.32800
C327        C  0.62252440  0.78640473  0.27774649     0.36500
C328        C  0.66191334  0.80284090  0.26122322    -0.05700
C329        C  0.70059498  0.81761478  0.27810470    -0.32700
C330        C  0.70076672  0.81843991  0.31091437     0.36400
H331        H  0.59234821  0.77676367  0.32284493     0.16700
O332        O  0.58398297  0.77158510  0.26208399    -0.60200
H333        H  0.73113642  0.83018698  0.26578827     0.16800
O334        O  0.73964956  0.83489059  0.32638172    -0.60300
H335        H  0.75102776  0.86661173  0.32792883     0.43700
H336        H  0.58064749  0.79743206  0.25946924     0.43700
C337        C  0.67073838  0.86152303  0.01164327    -0.05400
C338        C  0.63075899  0.84517011  0.02712553    -0.32800
C339        C  0.62823641  0.84214952  0.05990194     0.36500
C340        C  0.66621482  0.85697130  0.07794652    -0.05700
C341        C  0.70649487  0.87632379  0.06264850    -0.32700
C342        C  0.70893741  0.87804406  0.02980176     0.36400
H343        H  0.60094873  0.83228786  0.01375361     0.16700
O344        O  0.58841926  0.82436514  0.07406524    -0.60200
H345        H  0.73610950  0.88793300  0.07609110     0.16800
O346        O  0.74878089  0.89538441  0.01571853    -0.60300
H347        H  0.75637267  0.87212650  0.01631241     0.43700
H348        H  0.57576718  0.79249612  0.07197784     0.43700
C349        C  0.72421332  0.76539185  0.14036178    -0.05400
C350        C  0.70117289  0.72008218  0.13630540    -0.32800
C351        C  0.72113600  0.69833371  0.12317139     0.36500
C352        C  0.76478458  0.72203068  0.11337427    -0.05700
C353        C  0.78766487  0.76729762  0.11747929    -0.32700
C354        C  0.76790940  0.78893671  0.13072995     0.36400
H355        H  0.66752315  0.70133247  0.14336270     0.16700
O356        O  0.69744020  0.65405936  0.11974233    -0.60200
H357        H  0.82129986  0.78632399  0.11044625     0.16800
O358        O  0.79175159  0.83326344  0.13382157    -0.60300
H359        H  0.78756375  0.84472752  0.11379999     0.43700
H360        H  0.69986787  0.64234814  0.14019922     0.43700
C361        C  0.60467530  0.89402271  0.19876582    -0.05400
C362        C  0.62989603  0.93559312  0.21212083    -0.32800
C363        C  0.61045865  0.95773090  0.22529024     0.36500
C364        C  0.56497836  0.93855499  0.22509343    -0.05700
C365        C  0.53971213  0.89683154  0.21212568    -0.32700
C366        C  0.55909045  0.87468422  0.19891788     0.36400
H367        H  0.66492097  0.95095319  0.21273487     0.16700
O368        O  0.63630527  0.99797517  0.23842850    -0.60200
H369        H  0.50468335  0.88155818  0.21157215     0.16800
O370        O  0.53299117  0.83409644  0.18638126    -0.60300
H371        H  0.52864712  0.83909989  0.16416319     0.43700
H372        H  0.63830023  0.99251275  0.26096739     0.43700
C373        C  0.00117590  0.52811329  0.40815790    -0.05400
C374        C  0.04126948  0.55016336  0.39264883    -0.32800
C375        C  0.04339295  0.54978931  0.35981767     0.36500
C376        C  0.00496867  0.52818693  0.34195852    -0.05700
C377        C  0.96485224  0.50926845  0.35744663    -0.32700
C378        C  0.96274008  0.50886984  0.39020813     0.36400
H379        H  0.07122954  0.56552145  0.40597387     0.16700
O380        O  0.08313929  0.57026735  0.34545421    -0.60200
H381        H  0.93489332  0.49258280  0.34417513     0.16800
O382        O  0.92289925  0.48793659  0.40439371    -0.60300
H383        H  0.91498617  0.51067222  0.40789787     0.43700
H384        H  0.09439395  0.54990039  0.34716026     0.43700
C385        C  0.00037731  0.47514547  0.15774037    -0.05400
C386        C  0.04029765  0.49224498  0.14204419    -0.32800
C387        C  0.04225991  0.49420796  0.10921865     0.36500
C388        C  0.00387183  0.47839937  0.09145809    -0.05700
C389        C  0.96383671  0.45856639  0.10706924    -0.32700
C390        C  0.96187467  0.45709237  0.13985220     0.36400
H391        H  0.07032862  0.50625630  0.15524766     0.16700
O392        O  0.08197435  0.51303518  0.09484016    -0.60200
H393        H  0.93391500  0.44616897  0.09389124     0.16800
O394        O  0.92215528  0.43957712  0.15411241    -0.60300
H395        H  0.91377208  0.40903966  0.15850913     0.43700
H396        H  0.08685097  0.48863749  0.08959599     0.43700
C397        C  0.89812773  0.60838547  0.05310678    -0.05400
C398        C  0.94349054  0.63249795  0.05003904    -0.32800
C399        C  0.96657112  0.61321578  0.03810148     0.36500
C400        C  0.94413712  0.56929268  0.02844609    -0.05700
C401        C  0.89880384  0.54554948  0.03128838    -0.32700
C402        C  0.87591569  0.56445212  0.04361646     0.36400
H403        H  0.96123647  0.66635090  0.05709915     0.16700
O404        O  0.01051193  0.63633645  0.53700571    -0.60200
H405        H  0.88064342  0.51175635  0.02413086     0.16800
O406        O  0.83158997  0.53978391  0.04533892    -0.60300
H407        H  0.82564557  0.52387358  0.06540017     0.43700
H408        H  0.02128081  0.63420228  0.55797100     0.43700
C409        C  0.33962036  0.14543519  0.42485868    -0.05400
C410        C  0.29917378  0.12299281  0.43982804    -0.32800
C411        C  0.29618608  0.12174415  0.47256824     0.36500
C412        C  0.33409539  0.14202404  0.49102156    -0.05700
C413        C  0.37466386  0.16125476  0.47605052    -0.32700
C414        C  0.37762613  0.16362720  0.44323655     0.36400
H415        H  0.26950388  0.10845521  0.42616825     0.16700
O416        O  0.25600470  0.10102297  0.48629033    -0.60200
H417        H  0.40425492  0.17677521  0.48979506     0.16800
O418        O  0.41773753  0.18400405  0.42940600    -0.60300
H419        H  0.42797996  0.21549879  0.43115900     0.43700
H420        H  0.24508801  0.12169614  0.48487906     0.43700
C421        C  0.33258536  0.19349787  0.24141758    -0.05400
C422        C  0.29397013  0.16734634  0.22470250    -0.32800
C423        C  0.29341943  0.16658556  0.19191445     0.36500
C424        C  0.33186756  0.19242829  0.17509911    -0.05700
C425        C  0.37006805  0.22014367  0.19160855    -0.32700
C426        C  0.37062515  0.22108066  0.22450222     0.36400
H427        H  0.26431911  0.14583438  0.23705937     0.16700
O428        O  0.25571008  0.13827345  0.17660444    -0.60200
H429        H  0.39991052  0.24018119  0.17896223     0.16800
O430        O  0.40895370  0.24765687  0.23973331    -0.60300
H431        H  0.42404754  0.23067392  0.24092796     0.43700
H432        H  0.25681553  0.11113206  0.17392956     0.43700
C433        C  0.39866996  0.10778828  0.30323721    -0.05400
C434        C  0.44416283  0.12864541  0.30439978    -0.32800
C435        C  0.46629574  0.10848782  0.29238065     0.36500
C436        C  0.44293176  0.06646375  0.27912800    -0.05700
C437        C  0.39755379  0.04571756  0.27780161    -0.32700
C438        C  0.37545896  0.06610139  0.28935106     0.36400
H439        H  0.46279266  0.16067318  0.31485347     0.16700
O440        O  0.51060455  0.12938682  0.29507676    -0.60200
H441        H  0.37900132  0.01354852  0.26754589     0.16800
O442        O  0.33113562  0.04482086  0.28683627    -0.60300
H443        H  0.32521202  0.05316044  0.26607063     0.43700
H444        H  0.52171991  0.14901010  0.27677396     0.43700
C445        C  0.10177456  0.39383142  0.44432101    -0.05400
C446        C  0.05660261  0.37121355  0.44841971    -0.32800
C447        C  0.03536208  0.39195901  0.46107944     0.36500
C448        C  0.05937278  0.43619227  0.46997913    -0.05700
C449        C  0.10447067  0.45869055  0.46578627    -0.32700
C450        C  0.12565328  0.43803898  0.45322148     0.36400
H451        H  0.03756522  0.33727005  0.44179017     0.16700
O452        O  0.99110654  0.36877858  0.46406420    -0.60200
H453        H  0.12385854  0.49342126  0.97091413     0.16800
O454        O  0.16985280  0.46159280  0.44990153    -0.60300
H455        H  0.18234543  0.46100259  0.96877430     0.43700
H456        H  0.98573760  0.35470353  0.48485996     0.43700
C457        C  0.22911327  0.27191634  0.38766204    -0.05400
C458        C  0.27465680  0.29498385  0.38655794    -0.32800
C459        C  0.29770326  0.27577866  0.37449514     0.36500
C460        C  0.27524047  0.23273966  0.36286774    -0.05700
C461        C  0.22967882  0.20983647  0.36383442    -0.32700
C462        C  0.20668516  0.22901042  0.37590001     0.36400
H463        H  0.29264519  0.32810288  0.39522332     0.16700
O464        O  0.34213691  0.29957111  0.37414564    -0.60200
H465        H  0.21154005  0.17678122  0.35507564     0.16800
O466        O  0.16223164  0.20552428  0.37564970    -0.60300
H467        H  0.15355214  0.21221945  0.35528830     0.43700
H468        H  0.35138336  0.29506607  0.39504168     0.43700
C469        C  0.47247402  0.47322162  0.40783021    -0.05400
C470        C  0.45687122  0.49758226  0.39268799    -0.32800
C471        C  0.45688339  0.50002448  0.35993095     0.36500
C472        C  0.47138280  0.47668902  0.34152858    -0.05700
C473        C  0.48378283  0.44958791  0.35671583    -0.32700
C474        C  0.48503181  0.44827041  0.38958617     0.36400
H475        H  0.44705238  0.51702092  0.40631214     0.16700
O476        O  0.44331877  0.52594729  0.34622233    -0.60200
H477        H  0.49474867  0.43106744  0.34315266     0.16800
O478        O  0.49861485  0.42258868  0.40364314    -0.60300
H479        H  0.53073306  0.43948990  0.40279072     0.43700
H480        H  0.46834387  0.55591194  0.34794379     0.43700
C481        C  0.52517353  0.52533297  0.15760615    -0.05400
C482        C  0.50683843  0.54690218  0.14194475    -0.32800
C483        C  0.50600405  0.54779267  0.10910980     0.36500
C484        C  0.52489316  0.52804360  0.09129988    -0.05700
C485        C  0.54642846  0.50970229  0.10701462    -0.32700
C486        C  0.54610957  0.50766145  0.13985372     0.36400
H487        H  0.49079749  0.56096782  0.15511022     0.16700
O488        O  0.48611802  0.56754582  0.09466514    -0.60200
H489        H  0.56131333  0.49448149  0.09381977     0.16800
O490        O  0.56598940  0.48794771  0.15434014    -0.60300
H491        H  0.54514467  0.45634784  0.15260177     0.43700
H492        H  0.45461389  0.54634634  0.09580960     0.43700
C493        C  0.85813199  0.19056884  0.42432870    -0.05400
C494        C  0.83847129  0.20997683  0.44135515    -0.32800
C495        C  0.83742290  0.20894254  0.47413673     0.36500
C496        C  0.85555613  0.18751250  0.49046251    -0.05700
C497        C  0.87671547  0.16961365  0.47352700    -0.32700
C498        C  0.87853489  0.17141764  0.44075952     0.36400
H499        H  0.82242277  0.22466111  0.42917815     0.16700
O500        O  0.81536701  0.22572533  0.48975817    -0.60200
H501        H  0.89082485  0.15300372  0.48568639     0.16800
O502        O  0.89713152  0.15112529  0.42505132    -0.60300
H503        H  0.92838272  0.17313560  0.42375086     0.43700
H504        H  0.83667415  0.25704585  0.49257737     0.43700
C505        C  0.80871488  0.14040551  0.17422457    -0.05400
C506        C  0.79001773  0.16072804  0.19125518    -0.32800
C507        C  0.79036147  0.16102662  0.22402045     0.36500
C508        C  0.80990382  0.14095294  0.24037250    -0.05700
C509        C  0.82678474  0.11886728  0.22338052    -0.32700
C510        C  0.82587106  0.11804324  0.19056495     0.36400
H511        H  0.77649952  0.17791398  0.17912766     0.16700
O512        O  0.77380394  0.18328449  0.23970729    -0.60200
H513        H  0.84198717  0.10332716  0.23555448     0.16800
O514        O  0.84498512  0.09829079  0.17481883    -0.60300
H515        H  0.82190732  0.06746892  0.17257758     0.43700
H516        H  0.79840876  0.21341383  0.24189229     0.43700
C517        C  0.13628510  0.32732441  0.25800252    -0.05400
C518        C  0.15471736  0.36756944  0.27366827    -0.32800
C519        C  0.15618723  0.36990119  0.30642560     0.36500
C520        C  0.13850643  0.33157840  0.32417205    -0.05700
C521        C  0.11676654  0.29125521  0.30858405    -0.32700
C522        C  0.11604690  0.28891064  0.27573937     0.36400
H523        H  0.17029524  0.39752602  0.26051850     0.16700
O524        O  0.17653114  0.40988491  0.32079653    -0.60200
H525        H  0.10251716  0.26137624  0.32182474     0.16800
O526        O  0.09593979  0.24898990  0.26124466    -0.60300
H527        H  0.11680560  0.23832332  0.26268372     0.43700
H528        H  0.15313430  0.41647095  0.32539830     0.43700
C529        C  0.18836869  0.33189400  0.00805402    -0.05400
C530        C  0.17043177  0.29285577  0.02476183    -0.32800
C531        C  0.17128085  0.29291327  0.05757672     0.36500
C532        C  0.18974079  0.33252692  0.07436732    -0.05700
C533        C  0.20904071  0.37163123  0.05765847    -0.32700
C534        C  0.20855892  0.37157558  0.02481289     0.36400
H535        H  0.15441569  0.26202926  0.01235504     0.16700
O536        O  0.15068125  0.25395948  0.07291959    -0.60200
H537        H  0.22317048  0.40239990  0.07010883     0.16800
O538        O  0.22565179  0.41046037  0.00946562    -0.60300
H539        H  0.20150644  0.41663496  0.00786119     0.43700
H540        H  0.17270002  0.24483175  0.07478811     0.43700
C541        C  0.95722948  0.22702919  0.10823463    -0.05400
C542        C  0.97443156  0.26889072  0.12122613    -0.32800
C543        C  0.01579202  0.29024325  0.13466629     0.36500
C544        C  0.04098093  0.26986756  0.13526583    -0.05700
C545        C  0.02418970  0.22838724  0.12173164    -0.32700
C546        C  0.98293640  0.20714307  0.10806820     0.36400
H547        H  0.95542106  0.28494650  0.12164421     0.16700
O548        O  0.03095965  0.33082796  0.14742120    -0.60200
H549        H  0.04333291  0.21246440  0.12133988     0.16800
O550        O  0.96808586  0.16683045  0.09491427    -0.60300
H551        H  0.97730916  0.17235484  0.07267063     0.43700
H552        H  0.02180421  0.32577690  0.16969782     0.43700
C553        C  0.28833841  0.39118135  0.19560431    -0.05400
C554        C  0.31038230  0.43659920  0.19895006    -0.32800
C555        C  0.35251786  0.45923432  0.21103438     0.36500
C556        C  0.37358620  0.43653633  0.22044740    -0.05700
C557        C  0.35169484  0.39113199  0.21696958    -0.32700
C558        C  0.30959468  0.36848275  0.20463686     0.36400
H559        H  0.29494572  0.45491818  0.19218516     0.16700
O560        O  0.37273194  0.50361868  0.21333102    -0.60200
H561        H  0.36722584  0.37294073  0.22384121     0.16800
O562        O  0.28944429  0.32413194  0.20206766    -0.60300
H563        H  0.29838650  0.31846225  0.18135537     0.43700
H564        H  0.38755714  0.51445840  0.19293352     0.43700
C565        C  0.52638693  0.00778921  0.41018933    -0.05400
C566        C  0.51965235  0.97006428  0.39435782    -0.32800
C567        C  0.52066242  0.96861116  0.36152670     0.36500
C568        C  0.52977692  0.00556082  0.34404423    -0.05700
C569        C  0.53998930  0.04423201  0.35978920    -0.32700
C570        C  0.53774726  0.04545783  0.39252342     0.36400
H571        H  0.51144100  0.94086933  0.40730625     0.16700
O572        O  0.51248678  0.93090879  0.34669067    -0.60200
H573        H  0.54689000  0.07290278  0.34658660     0.16800
O574        O  0.54561933  0.08338110  0.40684262    -0.60300
H575        H  0.51814807  0.08389451  0.40489562     0.43700
H576        H  0.48046003  0.91235619  0.34644126     0.43700
C577        C  0.47303889  0.99780449  0.09432506    -0.05400
C578        C  0.45757524  0.95915124  0.11129649    -0.32800
C579        C  0.45927514  0.95980827  0.14412607     0.36500
C580        C  0.47697407  0.99962648  0.16056631    -0.05700
C581        C  0.49061168  0.03799696  0.14376211    -0.32700
C582        C  0.48850052  0.03735336  0.11097699     0.36400
H583        H  0.44559058  0.92843451  0.09906482     0.16700
O584        O  0.44585806  0.92160865  0.15976511    -0.60200
H585        H  0.50415195  0.06883859  0.15606487     0.16800
O586        O  0.50367323  0.07593958  0.09550312    -0.60300
H587        H  0.53523524  0.08739924  0.09292391     0.43700
H588        H  0.47212228  0.91888502  0.16179806     0.43700
C589        C  0.62128041  0.05908590  0.03121443    -0.05400
C590        C  0.64122522  0.10258358  0.04112997    -0.32800
C591        C  0.68298602  0.12344344  0.05385001     0.36500
C592        C  0.70619462  0.10104185  0.05649886    -0.05700
C593        C  0.68606547  0.05733483  0.04692637    -0.32700
C594        C  0.64408998  0.03636868  0.03436977     0.36400
H595        H  0.62424878  0.12061899  0.03933986     0.16700
O596        O  0.70091552  0.16603143  0.06305876    -0.60200
H597        H  0.70309466  0.03935660  0.04873196     0.16800
O598        O  0.62562105  0.99358387  0.52526276    -0.60300
H599        H  0.63450977  0.99455093  0.50309821     0.43700
H600        H  0.69182162  0.16500366  0.08517589     0.43700
C601        C  0.18831153  0.86583914  0.32610232    -0.05400
C602        C  0.21439396  0.85352657  0.30934528    -0.32800
C603        C  0.21435207  0.85296792  0.27648870     0.36500
C604        C  0.18741110  0.86435412  0.25970934    -0.05700
C605        C  0.16316281  0.87900838  0.27655461    -0.32700
C606        C  0.16354074  0.87991560  0.30942975     0.36400
H607        H  0.23371608  0.84270595  0.32179799     0.16700
O608        O  0.23913787  0.83910170  0.26116304    -0.60200
H609        H  0.14236364  0.88811211  0.26425189     0.16800
O610        O  0.13737789  0.89190304  0.32495196    -0.60300
H611        H  0.10907760  0.86468645  0.32724831     0.43700
H612        H  0.22073069  0.80704541  0.25983945     0.43700
C613        C  0.14013325  0.80955087  0.00935318    -0.05400
C614        C  0.11322271  0.82025610  0.02659630    -0.32800
C615        C  0.11224910  0.81835969  0.05941998     0.36500
C616        C  0.13975869  0.80710175  0.07562705    -0.05700
C617        C  0.16495987  0.79424820  0.05818727    -0.32700
C618        C  0.16491909  0.79491756  0.02536702     0.36400
H619        H  0.09373166  0.83127250  0.01461027     0.16700
O620        O  0.08664347  0.83067721  0.07533975    -0.60200
H621        H  0.18617640  0.78527327  0.07001943     0.16800
O622        O  0.19228879  0.78502531  0.00933366    -0.60300
H623        H  0.17574558  0.75304620  0.00649390     0.43700
H624        H  0.05810075  0.80378531  0.07728387     0.43700
C625        C  0.28801545  0.90357949  0.44732240    -0.05400
C626        C  0.30991271  0.88013814  0.45003420    -0.32800
C627        C  0.35135139  0.89897547  0.46310087     0.36500
C628        C  0.37252026  0.94263503  0.47333182    -0.05700
C629        C  0.35066622  0.96620013  0.47082050    -0.32700
C630        C  0.30861851  0.94692647  0.45830549     0.36400
H631        H  0.29478593  0.84665471  0.44218388     0.16700
O632        O  0.37123536  0.87454928  0.46480734    -0.60200
H633        H  0.36612717  0.99970743  0.47866198     0.16800
O634        O  0.28831128  0.97095570  0.45673139    -0.60300
H635        H  0.27444495  0.96756087  0.47749823     0.43700
H636        H  0.36094112  0.85830967  0.48472242     0.43700
C637        C  0.80481456  0.66210147  0.42422033    -0.05400
C638        C  0.78597131  0.62325540  0.44124558    -0.32800
C639        C  0.78529411  0.62371952  0.47413414     0.36500
C640        C  0.80469817  0.66358818  0.49068836    -0.05700
C641        C  0.82166772  0.70231163  0.47366463    -0.32700
C642        C  0.82157254  0.70183245  0.44079478     0.36400
H643        H  0.77290242  0.59238594  0.42904852     0.16700
O644        O  0.76880044  0.58512315  0.48977618    -0.60200
H645        H  0.83651777  0.73327473  0.48588967     0.16800
O646        O  0.84018089  0.74063850  0.42522923    -0.60300
H647        H  0.87126083  0.74949971  0.42316772     0.43700
H648        H  0.73738826  0.57464850  0.49199468     0.43700
C649        C  0.86089063  0.66840170  0.24034315    -0.05400
C650        C  0.84799178  0.62918683  0.22417326    -0.32800
C651        C  0.84664538  0.62753685  0.19126358     0.36500
C652        C  0.85928299  0.66563211  0.17398624    -0.05700
C653        C  0.87583431  0.70534661  0.19007436    -0.32700
C654        C  0.87652792  0.70695100  0.22288669     0.36400
H655        H  0.83649655  0.59923294  0.23699764     0.16700
O656        O  0.83258759  0.58851807  0.17620752    -0.60200
H657        H  0.88588311  0.73504467  0.17722103     0.16800
O658        O  0.89061116  0.74620290  0.23756095    -0.60300
H659        H  0.92179054  0.75748808  0.24196689     0.43700
H660        H  0.80049343  0.57322664  0.17750186     0.43700
C661        C  0.70766950  0.60397604  0.30283368    -0.05400
C662        C  0.68857027  0.62889822  0.29477786    -0.32800
C663        C  0.64635610  0.60931124  0.28269313     0.36500
C664        C  0.62243603  0.56393646  0.27809480    -0.05700
C665        C  0.64156758  0.53908110  0.28611801    -0.32700
C666        C  0.68361266  0.55857503  0.29830940     0.36400
H667        H  0.70640654  0.66385699  0.29776032     0.16700
O668        O  0.62929813  0.63503342  0.27488220    -0.60200
H669        H  0.62376673  0.50411158  0.28318566     0.16800
O670        O  0.70051826  0.53267582  0.30598506    -0.60300
H671        H  0.71306288  0.52894032  0.28622823     0.43700
H672        H  0.61777053  0.63980829  0.29477038     0.43700
C673        C  0.03941742  0.77150100  0.38964274    -0.05400
C674        C  0.01987045  0.72679296  0.38311698    -0.32800
C675        C  0.97820002  0.70379896  0.37006496     0.36500
C676        C  0.95520975  0.72550309  0.36322103    -0.05700
C677        C  0.97458832  0.77002850  0.37017879    -0.32700
C678        C  0.01609346  0.79295975  0.38319193     0.36400
H679        H  0.03701854  0.70949877  0.38793475     0.16700
O680        O  0.96029377  0.66013827  0.36442203    -0.60200
H681        H  0.95748194  0.78743383  0.36562203     0.16800
O682        O  0.03336509  0.83639294  0.38947409    -0.60300
H683        H  0.04686475  0.85124673  0.36948692     0.43700
H684        H  0.97042668  0.65791179  0.34317742     0.43700
O685        O  0.77463368  0.66672302  0.81757899    -0.71700
O686        O  0.89229313  0.72330293  0.84314397    -0.71900
O687        O  0.85035018  0.69803375  0.78775750    -0.71700
O688        O  0.81708134  0.69234283  0.87293292    -0.71800
O689        O  0.81353002  0.62994831  0.87737045    -0.71700
O690        O  0.84645211  0.63543975  0.79166724    -0.71700
O691        O  0.88918483  0.66111330  0.84733809    -0.71700
O692        O  0.77108223  0.60436549  0.82199160    -0.71900
V693        V  0.83350273  0.69383285  0.83039519     1.35200
V694        V  0.83014168  0.63388597  0.83449227     1.35200
C695        C  0.75286482  0.62584492  0.81490181     0.77600
C696        C  0.91054023  0.70196060  0.85051795     0.77600
C697        C  0.85306884  0.66738336  0.77486736     0.77500
C698        C  0.81104398  0.66093458  0.89002003     0.77500
O699        O  0.10199062  0.83418342  0.90973819    -0.71700
O700        O  0.22074314  0.89881752  0.93313455    -0.71900
O701        O  0.17563647  0.88150523  0.87844295    -0.71700
O702        O  0.14635904  0.85113536  0.96403513    -0.71800
O703        O  0.15277840  0.79409447  0.95710970    -0.71700
O704        O  0.18173153  0.82424427  0.87176664    -0.71700
O705        O  0.22619533  0.84135366  0.92595774    -0.71700
O706        O  0.10757757  0.77674115  0.90291826    -0.71900
V707        V  0.16135483  0.86536378  0.92119689     1.35200
V708        V  0.16692251  0.81023956  0.91453926     1.35200
C709        C  0.08469697  0.79470491  0.90168576     0.77600
C710        C  0.24343841  0.88064829  0.93450406     0.77600
C711        C  0.18238030  0.85721525  0.86029979     0.77500
C712        C  0.14586457  0.81811770  0.97533304     0.77500
O713        O  0.55809329  0.05974266  0.51296243    -0.71700
O714        O  0.44013370  0.00531278  0.98831854    -0.71900
O715        O  0.48339049  0.02881748  0.54349895    -0.71700
O716        O  0.51554657  0.03684941  0.95777096    -0.71800
O717        O  0.51106484  0.97390109  0.96032406    -0.71700
O718        O  0.47915052  0.96597755  0.54652326    -0.71700
O719        O  0.43618249  0.94262723  0.99125906    -0.71700
O720        O  0.55386971  0.99688768  0.51555038    -0.71900
V721        V  0.49893359  0.03124361  0.50074939     1.35200
V722        V  0.49484441  0.97083413  0.50345050     1.35200
C723        C  0.57591366  0.03758161  0.51915590     0.77600
C724        C  0.41816344  0.96450455  0.98492550     0.77600
C725        C  0.47759026  0.99699537  0.55997079     0.77500
C726        C  0.51816938  0.00655128  0.94421556     0.77500
O727        O  0.22467364  0.38928410  0.67640830    -0.71700
O728        O  0.10640095  0.33215984  0.65208165    -0.71900
O729        O  0.14980633  0.35796934  0.70707980    -0.71700
O730        O  0.18140151  0.36366442  0.62150204    -0.71800
O731        O  0.17869127  0.30158624  0.62557706    -0.71700
O732        O  0.14535980  0.29507875  0.71097481    -0.71700
O733        O  0.10346538  0.26991784  0.65535116    -0.71700
O734        O  0.22136156  0.32706308  0.68109553    -0.71900
V735        V  0.16549198  0.35953787  0.66436893     1.35200
V736        V  0.16234260  0.29963482  0.66822345     1.35200
C737        C  0.24306629  0.36799249  0.68357056     0.77600
C738        C  0.08515263  0.29138836  0.64853225     0.77600
C739        C  0.14306951  0.32601910  0.72382083     0.77500
C740        C  0.18394427  0.33289221  0.60865590     0.77500
O741        O  0.89008819  0.22330323  0.59567628    -0.71700
O742        O  0.77075655  0.16304835  0.57480363    -0.71900
O743        O  0.81661260  0.18034544  0.62814369    -0.71700
O744        O  0.84386037  0.20576475  0.54216067    -0.71800
O745        O  0.84660170  0.14650186  0.53654767    -0.71700
O746        O  0.81868234  0.12073463  0.62252356    -0.71700
O747        O  0.77261023  0.10344591  0.56879711    -0.71700
O748        O  0.89221683  0.16375823  0.59019668    -0.71900
V749        V  0.83040894  0.19195682  0.58508841     1.35200
V750        V  0.83243789  0.13471487  0.57960522     1.35200
C751        C  0.91136859  0.20369268  0.59724677     0.77600
C752        C  0.75142090  0.12322708  0.56756841     0.77600
C753        C  0.81399550  0.14675989  0.64017529     0.77500
C754        C  0.84898318  0.17999893  0.52453304     0.77500
O755        O  0.55580971  0.56118673  0.76386379    -0.71700
O756        O  0.43724293  0.49946435  0.73958749    -0.71900
O757        O  0.48073501  0.51706109  0.79448636    -0.71700
O758        O  0.51204636  0.54366066  0.70896026    -0.71800
O759        O  0.51594824  0.48496500  0.70403740    -0.71700
O760        O  0.48392396  0.45801893  0.78966847    -0.71700
O761        O  0.44054288  0.44050993  0.73449427    -0.71700
O762        O  0.55870925  0.50199061  0.75903554    -0.71900
V763        V  0.49652021  0.52919524  0.75164951     1.35200
V764        V  0.49966713  0.47249280  0.74688115     1.35200
C765        C  0.57726181  0.54181555  0.76630062     0.77600
C766        C  0.41892615  0.45969971  0.73208875     0.77600
C767        C  0.47814848  0.48372120  0.80697869     0.77500
C768        C  0.51850533  0.51841090  0.69171261     0.77500
O769        O  0.16495908  0.27166840  0.90633990    -0.71700
O770        O  0.10403703  0.32951353  0.93077654    -0.71900
O771        O  0.12028680  0.30166364  0.87583355    -0.71700
O772        O  0.14847290  0.29888366  0.96129306    -0.71800
O773        O  0.20649086  0.36198413  0.95648548    -0.71700
O774        O  0.17982469  0.36337896  0.87043974    -0.71700
O775        O  0.16283925  0.39145666  0.92439876    -0.71700
O776        O  0.22418058  0.33390216  0.90237074    -0.71900
V777        V  0.13554679  0.30161347  0.91848560     1.35200
V778        V  0.19219132  0.36141638  0.91349350     1.35200
C779        C  0.20483761  0.29305221  0.89952786     0.77600
C780        C  0.12351127  0.37056502  0.93244175     0.77600
C781        C  0.14588957  0.33243871  0.85833732     0.77500
C782        C  0.18132885  0.33065878  0.97377727     0.77500
O783        O  0.27654259  0.17036729  0.84306060    -0.71700
O784        O  0.33480807  0.11038918  0.81834618    -0.71900
O785        O  0.30853829  0.12744516  0.87340518    -0.71700
O786        O  0.30243332  0.15318627  0.78816229    -0.71800
O787        O  0.36429585  0.21280492  0.79250834    -0.71700
O788        O  0.37069896  0.18674969  0.87818574    -0.71700
O789        O  0.39668027  0.16993704  0.82287041    -0.71700
O790        O  0.33832131  0.22994102  0.84793476    -0.71900
V791        V  0.30685152  0.14152027  0.83083707     1.35200
V792        V  0.36632589  0.19876389  0.83529752     1.35200
C793        C  0.29746206  0.21018663  0.85044597     0.77600
C794        C  0.37560591  0.13008343  0.81556019     0.77600
C795        C  0.33996879  0.15320310  0.89060805     0.77500
C796        C  0.33273733  0.18665923  0.77545982     0.77500
O797        O  0.03264737  0.54672677  0.95957269    -0.71700
O798        O  0.03617935  0.51773611  0.54495222    -0.71900
O799        O  0.06123967  0.50053118  0.98967761    -0.71700
O800        O  0.00678096  0.56391357  0.51517452    -0.71800
O801        O  0.94391151  0.50592202  0.50921341    -0.71700
O802        O  0.99810914  0.44244783  0.98537153    -0.71700
O803        O  0.97242480  0.46046460  0.54011811    -0.71700
O804        O  0.96979039  0.48836427  0.95441154    -0.71900
V805        V  0.03268126  0.53080006  0.50227774     1.35200
V806        V  0.97201629  0.47506869  0.49739210     1.35200
C807        C  0.00107289  0.52159494  0.94219114     0.77600
C808        C  0.00451320  0.48496983  0.55731542     0.77600
C809        C  0.03877951  0.46065163  0.98259919     0.77500
C810        C  0.96592216  0.54546215  0.51705139     0.77500
O811        O  0.66172367  0.76928778  0.65479386    -0.71700
O812        O  0.60510492  0.83154826  0.67805557    -0.71900
O813        O  0.63294062  0.81491842  0.62365245    -0.71700
O814        O  0.63345347  0.78613200  0.70925768    -0.71800
O815        O  0.69632765  0.84423484  0.71540285    -0.71700
O816        O  0.69552438  0.87331004  0.62992042    -0.71700
O817        O  0.66755171  0.88986349  0.68461351    -0.71700
O818        O  0.72401384  0.82792532  0.66100038    -0.71900
V819        V  0.63453690  0.80156145  0.66653230     1.35200
V820        V  0.69460762  0.85770711  0.67262303     1.35200
C821        C  0.70263880  0.78840614  0.65301990     0.77600
C822        C  0.62665919  0.87102634  0.68622394     0.77600
C823        C  0.66453785  0.84846021  0.61198810     0.77500
C824        C  0.66443118  0.81104335  0.72714382     0.77500
O825        O  0.77032639  0.66001794  0.59811968    -0.71700
O826        O  0.83440586  0.60650622  0.57269056    -0.71900
O827        O  0.81747269  0.63178112  0.62786377    -0.71700
O828        O  0.78758009  0.63415080  0.54259071    -0.71800
O829        O  0.84528861  0.69734683  0.53724057    -0.71700
O830        O  0.87435100  0.69570629  0.62284721    -0.71700
O831        O  0.89222994  0.66967828  0.56791809    -0.71700
O832        O  0.82769976  0.72325632  0.59225100    -0.71900
V833        V  0.80351651  0.63438713  0.58520849     1.35200
V834        V  0.85876784  0.69528046  0.58013546     1.35200
C835        C  0.78843930  0.70087275  0.60039302     0.77600
C836        C  0.87397564  0.62883381  0.56543400     0.77600
C837        C  0.85044761  0.66372233  0.64009191     0.77500
C838        C  0.81225796  0.66537903  0.52502944     0.77500
O839        O  0.50392989  0.94193345  0.74393324    -0.71700
O840        O  0.44496210  0.00195075  0.76684072    -0.71900
O841        O  0.45969782  0.97160039  0.71269910    -0.71700
O842        O  0.48928371  0.97165019  0.79810813    -0.71800
O843        O  0.54807077  0.03392586  0.79198453    -0.71700
O844        O  0.51900574  0.03325447  0.70618054    -0.71700
O845        O  0.50420450  0.06352724  0.76018150    -0.71700
O846        O  0.56338046  0.00351980  0.73797340    -0.71900
V847        V  0.47560665  0.97303137  0.75531699     1.35200
V848        V  0.53256057  0.03232321  0.74915900     1.35200
C849        C  0.54353555  0.96251284  0.73641150     0.77600
C850        C  0.46476775  0.04301127  0.76807647     0.77600
C851        C  0.48491998  0.00178145  0.69467131     0.77500
C852        C  0.52297245  0.00329224  0.80979338     0.77500
O853        O  0.39152292  0.22890446  0.57418602    -0.71700
O854        O  0.33544865  0.11006655  0.59774232    -0.71900
O855        O  0.36299776  0.15414219  0.54304034    -0.71700
O856        O  0.36486790  0.18542909  0.62859235    -0.71800
O857        O  0.30154139  0.17955271  0.62308274    -0.71700
O858        O  0.30046727  0.14985357  0.53717306    -0.71700
O859        O  0.27300325  0.10568450  0.59133167    -0.71700
O860        O  0.32881753  0.22427495  0.56885896    -0.71900
V861        V  0.36248794  0.16947867  0.58576580     1.35200
V862        V  0.30222461  0.16497847  0.58018580     1.35200
C863        C  0.36962599  0.24668018  0.56696139     0.77600
C864        C  0.29449631  0.08792761  0.59944758     0.77600
C865        C  0.33203115  0.14797317  0.52526144     0.77500
C866        C  0.33294885  0.18639265  0.64064598     0.77500
O867        O  0.49722270  0.43916156  0.51003173    -0.71700
O868        O  0.55940335  0.55680483  0.98427673    -0.71900
O869        O  0.54252698  0.51489187  0.53971998    -0.71700
O870        O  0.51374899  0.48060864  0.95420518    -0.71800
O871        O  0.45586992  0.48580751  0.95931436    -0.71700
O872        O  0.48394114  0.51876346  0.54476556    -0.71700
O873        O  0.50108290  0.56097382  0.98976230    -0.71700
O874        O  0.43848566  0.44283616  0.51466038    -0.71900
V875        V  0.52681166  0.49782470  0.49712164     1.35200
V876        V  0.47071527  0.50189588  0.50207596     1.35200
C877        C  0.45775328  0.42134382  0.51770525     0.77600
C878        C  0.54065821  0.57887795  0.98219254     0.77600
C879        C  0.51748962  0.52149096  0.55704221     0.77500
C880        C  0.48063295  0.47898674  0.94193426     0.77500
O881        O  0.16376401  0.77484287  0.67722473    -0.71700
O882        O  0.22323457  0.89301246  0.65366680    -0.71900
O883        O  0.20603525  0.84995488  0.70847007    -0.71700
O884        O  0.18035656  0.81780855  0.62252556    -0.71800
O885        O  0.12043804  0.81919560  0.62710945    -0.71700
O886        O  0.14681067  0.85275346  0.71258655    -0.71700
O887        O  0.16358579  0.89502374  0.65743385    -0.71700
O888        O  0.10403521  0.77643616  0.68225010    -0.71900
V889        V  0.19216002  0.83393703  0.66555810     1.35200
V890        V  0.13482445  0.83577358  0.66978317     1.35200
C891        C  0.12414719  0.75561837  0.68457886     0.77600
C892        C  0.20351219  0.91398864  0.65063321     0.77600
C893        C  0.18025779  0.85591665  0.72541363     0.77500
C894        C  0.14660942  0.81432409  0.60989353     0.77500
O895        O  0.06173070  0.56258520  0.74036938    -0.71700
O896        O  0.00693076  0.44354102  0.76377208    -0.71900
O897        O  0.03213031  0.48784888  0.70898781    -0.71700
O898        O  0.03708387  0.51903916  0.79502249    -0.71800
O899        O  0.97440445  0.51482581  0.79060380    -0.71700
O900        O  0.96864076  0.48185082  0.70511837    -0.71700
O901        O  0.94427720  0.43954321  0.76031003    -0.71700
O902        O  0.99872463  0.55737567  0.73556987    -0.71900
V903        V  0.03326387  0.50309997  0.75197216     1.35200
V904        V  0.97277471  0.49847271  0.74794636     1.35200
C905        C  0.03947998  0.58003434  0.73324198     0.77600
C906        C  0.96616454  0.42168886  0.76711821     0.77600
C907        C  0.99999880  0.48072129  0.69213847     0.77500
C908        C  0.00622016  0.52151325  0.80761930     0.79300
O909        O  0.82019743  0.18453430  0.87744599    -0.71700
O910        O  0.79286752  0.15442697  0.79186753    -0.71900
O911        O  0.77405682  0.10980801  0.84612569    -0.71700
O912        O  0.83920911  0.22887529  0.82324839    -0.71800
O913        O  0.89662718  0.22312147  0.81758992    -0.71700
O914        O  0.83193620  0.10469606  0.84138818    -0.71700
O915        O  0.85000840  0.14795563  0.78679816    -0.71700
O916        O  0.87800797  0.17923443  0.87248577    -0.71900
V917        V  0.80770686  0.16930437  0.83456671     1.35200
V918        V  0.86306542  0.16392074  0.82965786     1.35200
C919        C  0.85286552  0.18555674  0.88985456     0.77600
C920        C  0.81731576  0.14713653  0.77453876     0.77600
C921        C  0.79224180  0.08718757  0.84850511     0.77500
C922        C  0.87876738  0.24605414  0.81566066     0.77500
O923        O  0.63232149  0.81693660  0.87442269    -0.71700
O924        O  0.63933685  0.84984009  0.96028764    -0.71900
O925        O  0.66485030  0.89285562  0.90491072    -0.71700
O926        O  0.60696593  0.77453884  0.92931177    -0.71800
O927        O  0.66878363  0.77710990  0.93400330    -0.71700
O928        O  0.72656610  0.89500589  0.90849718    -0.71700
O929        O  0.70174300  0.85339515  0.96407280    -0.71700
O930        O  0.69394704  0.81892663  0.87878492    -0.71900
V931        V  0.63709150  0.83368206  0.91735157     1.35200
V932        V  0.69656339  0.83610970  0.92130493     1.35200
C933        C  0.66248562  0.81325189  0.86178404     0.77600
C934        C  0.67111917  0.85578286  0.97712699     0.77600
C935        C  0.70556872  0.91372450  0.90133349     0.77500
C936        C  0.62789665  0.75572480  0.93628956     0.77500
C937        C  0.76881043  0.04207479  0.86068385    -0.05400
C938        C  0.79261486  0.02159398  0.86808991    -0.32800
C939        C  0.77273905  0.98041721  0.88165725     0.36500
C940        C  0.72783187  0.95825819  0.88800809    -0.05700
C941        C  0.70374451  0.97832387  0.88002700    -0.32700
C942        C  0.72380517  0.01982079  0.86663245     0.36400
H943        H  0.82719730  0.03780174  0.86379171     0.16700
O944        O  0.79765673  0.96197608  0.88804483    -0.60200
H945        H  0.66910642  0.96182203  0.88412263     0.16800
O946        O  0.69887460  0.03781085  0.85893297    -0.60300
H947        H  0.69583110  0.05092990  0.87868667     0.43700
H948        H  0.80981776  0.97275680  0.90927376     0.43700
C949        C  0.94438222  0.37691168  0.77970998    -0.05400
C950        C  0.96281442  0.35037989  0.77563827    -0.32800
C951        C  0.94233468  0.30796392  0.78753293     0.36500
C952        C  0.90283023  0.29147387  0.80409539    -0.05700
C953        C  0.88495919  0.31842336  0.80853815    -0.32700
C954        C  0.90521080  0.36055174  0.79653275     0.36400
H955        H  0.99282616  0.36226784  0.76273040     0.16700
O956        O  0.96032692  0.28242358  0.78163714    -0.60200
H957        H  0.85496849  0.30683586  0.82141720     0.16800
O958        O  0.88721138  0.38608288  0.80250538    -0.60300
H959        H  0.86414042  0.37750938  0.78647253     0.43700
H960        H  0.98250811  0.29013052  0.79825629     0.43700
C961        C  0.10245729  0.71041001  0.69649245    -0.05400
C962        C  0.05766713  0.68824161  0.70239082    -0.32800
C963        C  0.03677375  0.64620185  0.71475111     0.36500
C964        C  0.06064866  0.62530653  0.72150118    -0.05700
C965        C  0.10544014  0.64758572  0.71572369    -0.32700
C966        C  0.12626995  0.68943953  0.70323362     0.36400
H967        H  0.03861331  0.70353530  0.69748494     0.16700
O968        O  0.99290755  0.62582561  0.71977137    -0.60200
H969        H  0.12459483  0.63239155  0.72060334     0.16800
O970        O  0.17018265  0.70975459  0.69839685    -0.60300
H971        H  0.17362149  0.70012847  0.67724248     0.43700
H972        H  0.98964421  0.63453391  0.74129782     0.43700
C973        C  0.56374186  0.62413390  0.97051098    -0.05400
C974        C  0.53990889  0.64489954  0.96420939    -0.32800
C975        C  0.56012448  0.68732340  0.95284601     0.36500
C976        C  0.60526402  0.71016690  0.94741534    -0.05700
C977        C  0.62914323  0.68935400  0.95356023    -0.32700
C978        C  0.60880684  0.64672359  0.96477264     0.36400
H979        H  0.50519768  0.62818089  0.96801109     0.16700
O980        O  0.53517370  0.70589909  0.94703816    -0.60200
H981        H  0.66384049  0.70613545  0.94969091     0.16800
O982        O  0.63356220  0.62793512  0.97058977    -0.60300
H983        H  0.63610453  0.61609134  0.95007656     0.43700
H984        H  0.53343785  0.71861238  0.96739198     0.43700
C985        C  0.27175935  0.04310014  0.61194363    -0.05400
C986        C  0.22754228  0.02381918  0.61960681    -0.32800
C987        C  0.20504744  0.98230978  0.63260767     0.36500
C988        C  0.22666479  0.95897059  0.63835202    -0.05700
C989        C  0.27093023  0.97827983  0.63072791    -0.32700
C990        C  0.29347752  0.01991824  0.61782297     0.36400
H991        H  0.21015283  0.04111516  0.61577809     0.16700
O992        O  0.16201802  0.96518436  0.63978090    -0.60200
H993        H  0.28831739  0.96099804  0.63461596     0.16800
O994        O  0.33645219  0.03709628  0.61045043    -0.60300
H995        H  0.35237189  0.04972523  0.63034424     0.43700
H996        H  0.14618954  0.95148222  0.62004595     0.43700
C997        C  0.43518922  0.37696860  0.53075404    -0.05400
C998        C  0.38979999  0.35196409  0.52942863    -0.32800
C999        C  0.36784252  0.30991492  0.54169374     0.36500
C1000       C  0.39133406  0.29209169  0.55567839    -0.05700
C1001       C  0.43666183  0.31763246  0.55767621    -0.32700
C1002       C  0.45855706  0.35958593  0.54541482     0.36400
H1003       H  0.37121583  0.36479512  0.51843626     0.16700
O1004       O  0.32357735  0.28611623  0.53880922    -0.60200
H1005       H  0.45543081  0.30504176  0.56870615     0.16800
O1006       O  0.50320531  0.38337892  0.04811931    -0.60300
H1007       H  0.51484516  0.37363985  0.03069269     0.43700
H1008       H  0.31222727  0.29443129  0.55722495     0.43700
C1009       C  0.66223983  0.80534934  0.82759666    -0.05400
C1010       C  0.62319992  0.78791699  0.81065653    -0.32800
C1011       C  0.62310826  0.78677815  0.77779782     0.36500
C1012       C  0.66257196  0.80362632  0.76131375    -0.05700
C1013       C  0.70127455  0.81876594  0.77823816    -0.32700
C1014       C  0.70135960  0.81947123  0.81104941     0.36400
H1015       H  0.59276392  0.77665380  0.82287070     0.16700
O1016       O  0.58454630  0.77163635  0.76209889    -0.60200
H1017       H  0.73187730  0.83167969  0.76595800     0.16800
O1018       O  0.74024774  0.83630653  0.82656160    -0.60300
H1019       H  0.75120544  0.86794596  0.82822361     0.43700
H1020       H  0.58093236  0.79731369  0.75946346     0.43700
C1021       C  0.67070607  0.86116819  0.51154648    -0.05400
C1022       C  0.63073176  0.84449798  0.52707757    -0.32800
C1023       C  0.62831163  0.84154084  0.55985520     0.36500
C1024       C  0.66638263  0.85675463  0.57785891    -0.05700
C1025       C  0.70663006  0.87636297  0.56250353    -0.32700
C1026       C  0.70897704  0.87801000  0.52965064     0.36400
H1027       H  0.60086653  0.83133718  0.51374230     0.16700
O1028       O  0.58850044  0.82343504  0.57405780    -0.60200
H1029       H  0.73631466  0.88826517  0.57590781     0.16800
O1030       O  0.74880272  0.89563059  0.51550792    -0.60300
H1031       H  0.75665205  0.87255639  0.51608416     0.43700
H1032       H  0.57614257  0.79160134  0.57201255     0.43700
C1033       C  0.72490612  0.76575886  0.64063048    -0.05400
C1034       C  0.70146195  0.72063104  0.63559286    -0.32800
C1035       C  0.72135442  0.69887762  0.62236059     0.36500
C1036       C  0.76538338  0.72238545  0.61345714    -0.05700
C1037       C  0.78872299  0.76745111  0.61861425    -0.32700
C1038       C  0.76902457  0.78909790  0.63197958     0.36400
H1039       H  0.66750204  0.70201808  0.64188817     0.16700
O1040       O  0.69719274  0.65480387  0.61787935    -0.60200
H1041       H  0.82267928  0.78629439  0.61235338     0.16800
O1042       O  0.79337453  0.83321764  0.63621113    -0.60300
H1043       H  0.79072299  0.84584300  0.61624433     0.43700
H1044       H  0.69838776  0.64202526  0.63818726     0.43700
C1045       C  0.60492035  0.89429877  0.69852860    -0.05400
C1046       C  0.63020521  0.93705574  0.70985140    -0.32800
C1047       C  0.61085538  0.95932994  0.72294524     0.36500
C1048       C  0.56532468  0.93908002  0.72474177    -0.05700
C1049       C  0.54003501  0.89621213  0.71375498    -0.32700
C1050       C  0.55933465  0.87391940  0.70064429     0.36400
H1051       H  0.66526966  0.95332151  0.70888747     0.16700
O1052       O  0.63688595  0.00083224  0.73397011    -0.60200
H1053       H  0.50496894  0.88001070  0.71476543     0.16800
O1054       O  0.53316459  0.83207810  0.69031293    -0.60300
H1055       H  0.52620272  0.83473324  0.66821508     0.43700
H1056       H  0.64154555  0.99757009  0.75647144     0.43700
C1057       C  0.00205946  0.52886991  0.90799541    -0.05400
C1058       C  0.04215515  0.55030495  0.89245376    -0.32800
C1059       C  0.04419454  0.54987856  0.85962227     0.36500
C1060       C  0.00569534  0.52883187  0.84179087    -0.05700
C1061       C  0.96563544  0.51060815  0.85732512    -0.32700
C1062       C  0.96360180  0.51027159  0.89009310     0.36400
H1063       H  0.07213509  0.56518119  0.90575530     0.16700
O1064       O  0.08393338  0.56971259  0.84523613    -0.60200
H1065       H  0.93561765  0.49439432  0.84409111     0.16800
O1066       O  0.92378415  0.49004973  0.90433656    -0.60300
H1067       H  0.91659846  0.51327810  0.90798601     0.43700
H1068       H  0.09465233  0.54890980  0.84696488     0.43700
C1069       C  0.00037091  0.47447966  0.65773499    -0.05400
C1070       C  0.04022407  0.49136030  0.64197165    -0.32800
C1071       C  0.04206008  0.49307541  0.60914096     0.36500
C1072       C  0.00361611  0.47726771  0.59145374    -0.05700
C1073       C  0.96363505  0.45752789  0.60713561    -0.32700
C1074       C  0.96179662  0.45627125  0.63992377     0.36400
H1075       H  0.07030526  0.50541994  0.65511631     0.16700
O1076       O  0.08171197  0.51170248  0.59468053    -0.60200
H1077       H  0.93366957  0.44509032  0.59400711     0.16800
O1078       O  0.92213328  0.43884917  0.65425818    -0.60300
H1079       H  0.91378859  0.40835730  0.65878240     0.43700
H1080       H  0.08632092  0.48717640  0.58928713     0.43700
C1081       C  0.89781295  0.60763826  0.55352538    -0.05400
C1082       C  0.94322468  0.63147507  0.55084910    -0.32800
C1083       C  0.96619414  0.61206607  0.53895472     0.36500
C1084       C  0.94360825  0.56829175  0.52894512    -0.05700
C1085       C  0.89823251  0.54478993  0.53145541    -0.32700
C1086       C  0.87543822  0.56382651  0.54373915     0.36400
H1087       H  0.96109262  0.66521765  0.55817152     0.16700
O1088       O  0.01083027  0.63774574  0.03575075    -0.60200
H1089       H  0.87997055  0.51111689  0.52402235     0.16800
O1090       O  0.83106406  0.53945485  0.54508219    -0.60300
H1091       H  0.82467023  0.52320221  0.56501658     0.43700
H1092       H  0.02202041  0.63612038  0.05667814     0.43700
C1093       C  0.33871053  0.14586906  0.92481891    -0.05400
C1094       C  0.29824551  0.12450876  0.93983749    -0.32800
C1095       C  0.29531311  0.12339679  0.97258157     0.36500
C1096       C  0.33327418  0.14267271  0.99102143    -0.05700
C1097       C  0.37377288  0.16100758  0.97598939    -0.32700
C1098       C  0.37670390  0.16329663  0.94316300     0.36400
H1099       H  0.26858295  0.11069220  0.92619815     0.16700
O1100       O  0.25513206  0.10376545  0.98631047    -0.60200
H1101       H  0.40340182  0.17582779  0.98969683     0.16800
O1102       O  0.41677809  0.18274472  0.92928240    -0.60300
H1103       H  0.42772387  0.21439053  0.93089150     0.43700
H1104       H  0.24522877  0.12525624  0.98499027     0.43700
C1105       C  0.33187922  0.19294254  0.74113715    -0.05400
C1106       C  0.29339604  0.16651095  0.72435403    -0.32800
C1107       C  0.29292545  0.16591264  0.69156067     0.36500
C1108       C  0.33131567  0.19220254  0.67481642    -0.05700
C1109       C  0.36935663  0.22016556  0.69139568    -0.32700
C1110       C  0.36983639  0.22093587  0.72428756     0.36400
H1111       H  0.26381133  0.14467916  0.73665595     0.16700
O1112       O  0.25539840  0.13733077  0.67617020    -0.60200
H1113       H  0.39916230  0.24051640  0.67880053     0.16800
O1114       O  0.40803624  0.24777387  0.73957737    -0.60300
H1115       H  0.42345746  0.23110554  0.74071815     0.43700
H1116       H  0.25690279  0.11040980  0.67344809     0.43700
C1117       C  0.39812905  0.10750262  0.80331767    -0.05400
C1118       C  0.44366340  0.12876555  0.80388202    -0.32800
C1119       C  0.46584825  0.10864920  0.79187753     0.36500
C1120       C  0.44251207  0.06622836  0.77926573    -0.05700
C1121       C  0.39708246  0.04507466  0.77853253    -0.32700
C1122       C  0.37492306  0.06541931  0.79004914     0.36400
H1123       H  0.46230398  0.16111733  0.81382097     0.16700
O1124       O  0.51023811  0.13006931  0.79391287    -0.60200
H1125       H  0.37852448  0.01260787  0.76876281     0.16800
O1126       O  0.33053658  0.04369758  0.78811801    -0.60300
H1127       H  0.32395376  0.05136340  0.76732644     0.43700
H1128       H  0.52062586  0.14912678  0.77528305     0.43700
C1129       C  0.10161062  0.39373651  0.94461728    -0.05400
C1130       C  0.05664375  0.37100730  0.94975447    -0.32800
C1131       C  0.03566389  0.39197105  0.96249745     0.36500
C1132       C  0.05970999  0.43657547  0.97037936    -0.05700
C1133       C  0.10461510  0.45915888  0.96524702    -0.32700
C1134       C  0.12555641  0.43827638  0.95264010     0.36400
H1135       H  0.03756092  0.33679182  0.94390284     0.16700
O1136       O  0.99160088  0.36857781  0.96663195    -0.60200
H1137       H  0.12369825  0.49268962  0.47222129     0.16800
O1138       O  0.16958313  0.46196833  0.94835908    -0.60300
H1139       H  0.18171044  0.46001008  0.47055603     0.43700
H1140       H  0.98740795  0.35583883  0.98784498     0.43700
C1141       C  0.22822569  0.27129536  0.88753971    -0.05400
C1142       C  0.27378148  0.29369430  0.88774991    -0.32800
C1143       C  0.29684347  0.27457240  0.87559497     0.36500
C1144       C  0.27439803  0.23234067  0.86251823    -0.05700
C1145       C  0.22881973  0.21012204  0.86214745    -0.32700
C1146       C  0.20580605  0.22922297  0.87431882     0.36400
H1147       H  0.29174330  0.32618047  0.89757387     0.16700
O1148       O  0.34128443  0.29758237  0.87671183    -0.60200
H1149       H  0.21071930  0.17771091  0.85222792     0.16800
O1150       O  0.16138403  0.20658501  0.87266898    -0.60300
H1151       H  0.15418223  0.21518314  0.85247849     0.43700
H1152       H  0.34901647  0.29108778  0.89751870     0.43700
C1153       C  0.47315012  0.47354784  0.90765695    -0.05400
C1154       C  0.45789305  0.49822766  0.89256387    -0.32800
C1155       C  0.45766324  0.50052957  0.85981484     0.36500
C1156       C  0.47156513  0.47673035  0.84134928    -0.05700
C1157       C  0.48367842  0.44937673  0.85650438    -0.32700
C1158       C  0.48516989  0.44819406  0.88938080     0.36400
H1159       H  0.44850759  0.51798960  0.90621857     0.16700
O1160       O  0.44449719  0.52681799  0.84617908    -0.60200
H1161       H  0.49420903  0.43052069  0.84290454     0.16800
O1162       O  0.49838457  0.42219769  0.90340845    -0.60300
H1163       H  0.53050769  0.43880447  0.90251013     0.43700
H1164       H  0.46981741  0.55662369  0.84777416     0.43700
C1165       C  0.52569339  0.52614877  0.65756490    -0.05400
C1166       C  0.50707521  0.54747447  0.64194159    -0.32800
C1167       C  0.50611119  0.54828644  0.60911174     0.36500
C1168       C  0.52511070  0.52866746  0.59127985    -0.05700
C1169       C  0.54707306  0.51074639  0.60695739    -0.32700
C1170       C  0.54692675  0.50882119  0.63979610     0.36400
H1171       H  0.49086664  0.56134123  0.65513338     0.16700
O1172       O  0.48595007  0.56778475  0.59469666    -0.60200
H1173       H  0.56213999  0.49572338  0.59374484     0.16800
O1174       O  0.56724057  0.48953617  0.65427028    -0.60300
H1175       H  0.54670879  0.45786470  0.65252346     0.43700
H1176       H  0.45448669  0.54647799  0.59596844     0.43700
C1177       C  0.85919918  0.19091581  0.92417403    -0.05400
C1178       C  0.83942448  0.21023406  0.94116545    -0.32800
C1179       C  0.83815646  0.20904395  0.97392870     0.36500
C1180       C  0.85622575  0.18758710  0.99028619    -0.05700
C1181       C  0.87758372  0.16984599  0.97340376    -0.32700
C1182       C  0.87961271  0.17180144  0.94063625     0.36400
H1183       H  0.82338337  0.22490969  0.92896677     0.16700
O1184       O  0.81591087  0.22566606  0.98948928    -0.60200
H1185       H  0.89168639  0.15325621  0.98559855     0.16800
O1186       O  0.89842023  0.15169633  0.92495392    -0.60300
H1187       H  0.92963034  0.17384019  0.92367027     0.43700
H1188       H  0.83711707  0.25700570  0.99235523     0.43700
C1189       C  0.80803452  0.13984525  0.67433146    -0.05400
C1190       C  0.78956567  0.16035862  0.69139805    -0.32800
C1191       C  0.79009939  0.16077064  0.72415426     0.36500
C1192       C  0.80961626  0.14062910  0.74044662    -0.05700
C1193       C  0.82610062  0.11820529  0.72343074    -0.32700
C1194       C  0.82496815  0.11724502  0.69062350     0.36400
H1195       H  0.77615204  0.17766545  0.67930395     0.16700
O1196       O  0.77380882  0.18324331  0.73988053    -0.60200
H1197       H  0.84119697  0.10253632  0.73557313     0.16800
O1198       O  0.84369097  0.09714103  0.67483177    -0.60300
H1199       H  0.82039568  0.06640682  0.67264135     0.43700
H1200       H  0.79850258  0.21334285  0.74192890     0.43700
C1201       C  0.13625847  0.32668347  0.75801607    -0.05400
C1202       C  0.15473049  0.36693237  0.77367347    -0.32800
C1203       C  0.15599258  0.36927900  0.80642644     0.36500
C1204       C  0.13804400  0.33096659  0.82419890    -0.05700
C1205       C  0.11633405  0.29063540  0.80861101    -0.32700
C1206       C  0.11583558  0.28827604  0.77575774     0.36400
H1207       H  0.17047409  0.39688536  0.76052496     0.16700
O1208       O  0.17641148  0.40927443  0.82077875    -0.60200
H1209       H  0.10193383  0.26076648  0.82186882     0.16800
O1210       O  0.09572254  0.24835552  0.76126423    -0.60300
H1211       H  0.11653708  0.23763347  0.76278099     0.43700
H1212       H  0.15308953  0.41602050  0.82524039     0.43700
C1213       C  0.18883497  0.33213260  0.50800885    -0.05400
C1214       C  0.17038629  0.29298261  0.52461433    -0.32800
C1215       C  0.17101530  0.29283669  0.55742381     0.36500
C1216       C  0.18978751  0.33236067  0.57432623    -0.05700
C1217       C  0.20963328  0.37157030  0.55773847    -0.32700
C1218       C  0.20938467  0.37171353  0.52488337     0.36400
H1219       H  0.15410696  0.26222726  0.51212780     0.16700
O1220       O  0.14988407  0.25381498  0.57264760    -0.60200
H1221       H  0.22403978  0.40227719  0.57028799     0.16800
O1222       O  0.22708923  0.41071429  0.50963927    -0.60300
H1223       H  0.20335772  0.41751161  0.50819279     0.43700
H1224       H  0.17155967  0.24423621  0.57450447     0.43700
C1225       C  0.95681709  0.22665318  0.60854542    -0.05400
C1226       C  0.97420883  0.26859629  0.62142884    -0.32800
C1227       C  0.01562401  0.28989257  0.63481131     0.36500
C1228       C  0.04070070  0.26938667  0.63546236    -0.05700
C1229       C  0.02368043  0.22778369  0.62209385    -0.32700
C1230       C  0.98237033  0.20658939  0.60849824     0.36400
H1231       H  0.95531998  0.28478140  0.62178012     0.16700
O1232       O  0.03096936  0.33057408  0.64743788    -0.60200
H1233       H  0.04269188  0.21172055  0.62176990     0.16800
O1234       O  0.96731516  0.16614277  0.59552485    -0.60300
H1235       H  0.97653875  0.17144912  0.57327567     0.43700
H1236       H  0.02188617  0.32568620  0.66973195     0.43700
C1237       C  0.28843815  0.39078776  0.69529100    -0.05400
C1238       C  0.31060312  0.43625825  0.69825634    -0.32800
C1239       C  0.35279286  0.45900595  0.71024027     0.36500
C1240       C  0.37380702  0.43638891  0.71996225    -0.05700
C1241       C  0.35185149  0.39093723  0.71678221    -0.32700
C1242       C  0.30968956  0.36816543  0.70453444     0.36400
H1243       H  0.29521448  0.45453768  0.69127252     0.16700
O1244       O  0.37311718  0.50342684  0.71213557    -0.60200
H1245       H  0.36735606  0.37280445  0.72386698     0.16800
O1246       O  0.28945281  0.32377925  0.70230110    -0.60300
H1247       H  0.29836964  0.31778919  0.68168837     0.43700
H1248       H  0.38804626  0.51389303  0.69172705     0.43700
C1249       C  0.52697734  0.00823612  0.91004340    -0.05400
C1250       C  0.52026511  0.97051348  0.89422298    -0.32800
C1251       C  0.52127417  0.96904741  0.86139559     0.36500
C1252       C  0.53036357  0.00598283  0.84390397    -0.05700
C1253       C  0.54060913  0.04467059  0.85963835    -0.32700
C1254       C  0.53837126  0.04590893  0.89237384     0.36400
H1255       H  0.51204499  0.94131920  0.90717537     0.16700
O1256       O  0.51307707  0.93133112  0.84656919    -0.60200
H1257       H  0.54749480  0.07333134  0.84642882     0.16800
O1258       O  0.54625841  0.08383906  0.90668939    -0.60300
H1259       H  0.51880608  0.08438307  0.90471797     0.43700
H1260       H  0.48105220  0.91275275  0.84638207     0.43700
C1261       C  0.47247343  0.99750771  0.59444410    -0.05400
C1262       C  0.45683066  0.95885209  0.61143640    -0.32800
C1263       C  0.45845444  0.95954648  0.64426613     0.36500
C1264       C  0.47626320  0.99940625  0.66066408    -0.05700
C1265       C  0.48999658  0.03776520  0.64382962    -0.32700
C1266       C  0.48797378  0.03708731  0.61105328     0.36400
H1267       H  0.44478576  0.92811231  0.59922531     0.16700
O1268       O  0.44488213  0.92134673  0.65994385    -0.60200
H1269       H  0.50361226  0.06863569  0.65610114     0.16800
O1270       O  0.50332429  0.07567501  0.59554844    -0.60300
H1271       H  0.53486753  0.08700067  0.59299664     0.43700
H1272       H  0.47107226  0.91849957  0.66201003     0.43700
C1273       C  0.62083380  0.05881249  0.53141850    -0.05400
C1274       C  0.64065307  0.10224982  0.54147537    -0.32800
C1275       C  0.68241180  0.12315211  0.55420628     0.36500
C1276       C  0.70574088  0.10086110  0.55671237    -0.05700
C1277       C  0.68571467  0.05719967  0.54703173    -0.32700
C1278       C  0.64374342  0.03618852  0.53447350     0.36400
H1279       H  0.62357943  0.12020003  0.53978600     0.16700
O1280       O  0.70021749  0.16566739  0.56356973    -0.60200
H1281       H  0.70282731  0.03929428  0.54874422     0.16800
O1282       O  0.62585847  0.99371027  0.02527253    -0.60300
H1283       H  0.63468981  0.99454284  0.00310641     0.43700
H1284       H  0.69110479  0.16446129  0.58569959     0.43700
C1285       C  0.18813646  0.86501045  0.82613710    -0.05400
C1286       C  0.21391348  0.85235507  0.80932734    -0.32800
C1287       C  0.21386280  0.85187237  0.77647255     0.36500
C1288       C  0.18724836  0.86372154  0.75973934    -0.05700
C1289       C  0.16328944  0.87867345  0.77663313    -0.32700
C1290       C  0.16366111  0.87948410  0.80951044     0.36400
H1291       H  0.23300728  0.84122279  0.82173541     0.16700
O1292       O  0.23830992  0.83763672  0.76109948    -0.60200
H1293       H  0.14273549  0.88812187  0.76436289     0.16800
O1294       O  0.13780199  0.89182318  0.82507366    -0.60300
H1295       H  0.10933387  0.86477745  0.82733359     0.43700
H1296       H  0.21959273  0.80562210  0.75970493     0.43700
C1297       C  0.13992408  0.81021424  0.50922619    -0.05400
C1298       C  0.11299564  0.82082845  0.52653526    -0.32800
C1299       C  0.11213509  0.81893623  0.55936282     0.36500
C1300       C  0.13976106  0.80775945  0.57549473    -0.05700
C1301       C  0.16503738  0.79507337  0.55798483    -0.32700
C1302       C  0.16491086  0.79576635  0.52517295     0.36400
H1303       H  0.09339456  0.83175319  0.51459842     0.16700
O1304       O  0.08649984  0.83114759  0.57535792    -0.60200
H1305       H  0.18637023  0.78619766  0.56975537     0.16800
O1306       O  0.19239353  0.78609091  0.50907652    -0.60300
H1307       H  0.17597405  0.75411810  0.50618748     0.43700
H1308       H  0.05797410  0.80422728  0.57727056     0.43700
C1309       C  0.28842359  0.90349596  0.94694378    -0.05400
C1310       C  0.31069319  0.88038532  0.94929403    -0.32800
C1311       C  0.35219594  0.89940356  0.96228231     0.36500
C1312       C  0.37304425  0.94291463  0.97284704    -0.05700
C1313       C  0.35091047  0.96622707  0.97054958    -0.32700
C1314       C  0.30881612  0.94677813  0.95807388     0.36400
H1315       H  0.29580006  0.84700737  0.94123578     0.16700
O1316       O  0.37246093  0.87530769  0.96359054    -0.60200
H1317       H  0.36616003  0.99964287  0.97857645     0.16800
O1318       O  0.28822892  0.97055673  0.95672608    -0.60300
H1319       H  0.27439955  0.96692895  0.97753403     0.43700
H1320       H  0.36220757  0.85862713  0.98333205     0.43700
C1321       C  0.80416755  0.66168687  0.92431758    -0.05400
C1322       C  0.78578118  0.62286873  0.94136248    -0.32800
C1323       C  0.78499218  0.62335598  0.97423820     0.36500
C1324       C  0.80380943  0.66323290  0.99074637    -0.05700
C1325       C  0.82013917  0.70187837  0.97371178    -0.32700
C1326       C  0.82014610  0.70136614  0.94085005     0.36400
H1327       H  0.77324168  0.59203144  0.92920073     0.16700
O1328       O  0.76908736  0.58484845  0.98991930    -0.60200
H1329       H  0.83447360  0.73283173  0.98592497     0.16800
O1330       O  0.83811122  0.74013090  0.92526391    -0.60300
H1331       H  0.86939603  0.74974744  0.92344148     0.43700
H1332       H  0.73758731  0.57391192  0.99218024     0.43700
C1333       C  0.86071064  0.66779803  0.74055925    -0.05400
C1334       C  0.84743817  0.62852097  0.72436759    -0.32800
C1335       C  0.84597351  0.62688262  0.69145320     0.36500
C1336       C  0.85885602  0.66504231  0.67419128    -0.05700
C1337       C  0.87572054  0.70477556  0.69029941    -0.32700
C1338       C  0.87654208  0.70637552  0.72311114     0.36400
H1339       H  0.83576314  0.59853540  0.73718430     0.16700
O1340       O  0.83160935  0.58782521  0.67638030    -0.60200
H1341       H  0.88596775  0.73452487  0.67746366     0.16800
O1342       O  0.89096614  0.74567599  0.73780013    -0.60300
H1343       H  0.92209563  0.75668513  0.74220485     0.43700
H1344       H  0.79952410  0.57275677  0.67769754     0.43700
C1345       C  0.70764172  0.60401045  0.80303164    -0.05400
C1346       C  0.68791209  0.62879327  0.79639624    -0.32800
C1347       C  0.64567718  0.60931494  0.78434506     0.36500
C1348       C  0.62240930  0.56422646  0.77830354    -0.05700
C1349       C  0.64216903  0.53952306  0.78496438    -0.32700
C1350       C  0.68420298  0.55888718  0.79713665     0.36400
H1351       H  0.70524272  0.66354243  0.80052517     0.16700
O1352       O  0.62792184  0.63488713  0.77808284    -0.60200
H1353       H  0.62491347  0.50475826  0.78090354     0.16800
O1354       O  0.70177831  0.53313131  0.80331149    -0.60300
H1355       H  0.71485846  0.53124926  0.78323168     0.43700
H1356       H  0.61584087  0.63775134  0.79834256     0.43700
C1357       C  0.03942327  0.77059580  0.88995530    -0.05400
C1358       C  0.01977629  0.72586783  0.88345712    -0.32800
C1359       C  0.97805449  0.70292075  0.87044244     0.36500
C1360       C  0.95513262  0.72470144  0.86359152    -0.05700
C1361       C  0.97461008  0.76923262  0.87054324    -0.32700
C1362       C  0.01613743  0.79210535  0.88352362     0.36400
H1363       H  0.03688527  0.70853207  0.88826500     0.16700
O1364       O  0.96003948  0.65924094  0.86483208    -0.60200
H1365       H  0.95757026  0.78670527  0.86599157     0.16800
O1366       O  0.03348165  0.83555528  0.88977347    -0.60300
H1367       H  0.04699592  0.85037034  0.86977329     0.43700
H1368       H  0.97008871  0.65694846  0.84357192     0.43700
loop_ 
_geom_bond_atom_site_label_1 
_geom_bond_atom_site_label_2 
_geom_bond_distance 
_geom_bond_site_symmetry_2 
_ccdc_geom_bond_type 
O1            V9   1.897       .  S
O1           C11   1.264       .  A
O2            V9   1.891       .  S
O2           C12   1.264       .  A
O3            V9   1.897       .  S
O3           C13   1.264       .  A
O4            V9   1.899       .  S
O4           C14   1.264       .  A
O5           V10   1.906       .  S
O5           C14   1.267       .  A
O6           V10   1.908       .  S
O6           C13   1.266       .  A
O7           V10   1.902       .  S
O7           C12   1.265       .  A
O8           V10   1.897       .  S
O8           C11   1.264       .  A
V9           V10   2.085       .  T
C11         C661   1.483       .  S
C12         C676   1.482       .  S
C13         C649   1.486       .  S
C14         C637   1.485       .  S
O15          V23   1.895       .  S
O15          C25   1.264       .  A
O16          V23   1.904       .  S
O16          C26   1.265       .  A
O17          V23   1.906       .  S
O17          C27   1.265       .  A
O18          V23   1.902       .  S
O18          C28   1.265       .  A
O19          V24   1.897       .  S
O19          C28   1.263       .  A
O20          V24   1.897       .  S
O20          C27   1.264       .  A
O21          V24   1.890       .  S
O21          C26   1.264       .  A
O22          V24   1.898       .  S
O22          C25   1.264       .  A
V23          V24   2.086       .  T
C25         C673   1.482       .  S
C26         C625   1.483       .  S
C27         C601   1.479       .  S
C28        C1297   1.477       .  S
O29          V37   1.897       .  S
O29          C39   1.265       .  A
O30         V721   1.902       .  S
O30          C40   1.265   1_545  A
O31          V37   1.895       .  S
O31          C41   1.263   1_545  A
O32         V721   1.896       .  S
O32          C42   1.264       .  A
O33         V722   1.904       .  S
O33          C42   1.266   1_565  A
O34          V38   1.903       .  S
O34          C41   1.266       .  A
O35         V722   1.892       .  S
O35          C40   1.263       .  A
O36          V38   1.895       .  S
O36          C39   1.263   1_565  A
V37         O714   1.903   1_554  S
V37         O716   1.896   1_554  S
V37          V38   2.085   1_545  T
V38         O717   1.904   1_554  S
V38         O719   1.892   1_554  S
C39         C589   1.480       .  S
C40         C628   1.483       .  S
C41         C577   1.483       .  S
C42         C565   1.485       .  S
O43          V51   1.895       .  S
O43          C53   1.264       .  A
O44          V51   1.896       .  S
O44          C54   1.264       .  A
O45          V51   1.897       .  S
O45          C55   1.264       .  A
O46          V51   1.898       .  S
O46          C56   1.264       .  A
O47          V52   1.899       .  S
O47          C56   1.265       .  A
O48          V52   1.901       .  S
O48          C55   1.265       .  A
O49          V52   1.895       .  S
O49          C54   1.264       .  A
O50          V52   1.900       .  S
O50          C53   1.265       .  A
V51          V52   2.086       .  T
C53         C553   1.484       .  S
C54         C544   1.478       .  S
C55         C517   1.479       .  S
C56         C532   1.480       .  S
O57          V65   1.893       .  S
O57          C67   1.264       .  A
O58          V65   1.890       .  S
O58          C68   1.262       .  A
O59          V65   1.895       .  S
O59          C69   1.264       .  A
O60          V65   1.896       .  S
O60          C70   1.264       .  A
O61          V66   1.897       .  S
O61          C70   1.264       .  A
O62          V66   1.899       .  S
O62          C69   1.264       .  A
O63          V66   1.902       .  S
O63          C68   1.266       .  A
O64          V66   1.897       .  S
O64          C67   1.264       .  A
V65          V66   2.086       .  T
C67         C541   1.480       .  S
C68         C592   1.482       .  S
C69         C505   1.477       .  S
C70        C1180   1.476   1_554  S
O71          V79   1.901       .  S
O71          C81   1.265       .  A
O72          V79   1.897       .  S
O72          C82   1.264       .  A
O73          V79   1.899       .  S
O73          C83   1.265       .  A
O74          V79   1.901       .  S
O74          C84   1.265       .  A
O75          V80   1.903       .  S
O75          C84   1.266       .  A
O76          V80   1.904       .  S
O76          C83   1.266       .  A
O77          V80   1.899       .  S
O77          C82   1.265       .  A
O78          V80   1.893       .  S
O78          C81   1.264       .  A
V79          V80   2.085       .  T
C81         C664   1.482       .  S
C82         C556   1.483       .  S
C83         C472   1.486       .  S
C84         C481   1.482       .  S
O85          V93   1.900       .  S
O85          C95   1.265       .  A
O86          V93   1.904       .  S
O86          C96   1.266       .  A
O87          V93   1.898       .  S
O87          C97   1.264       .  A
O88          V93   1.897       .  S
O88          C98   1.265       .  A
O89          V94   1.902       .  S
O89          C98   1.265       .  A
O90          V94   1.899       .  S
O90          C97   1.265       .  A
O91          V94   1.888       .  S
O91          C96   1.262       .  A
O92          V94   1.897       .  S
O92          C95   1.264       .  A
V93          V94   2.086       .  T
C95         C457   1.483       .  S
C96         C445   1.481       .  S
C97         C520   1.478       .  S
C98        C1213   1.480       .  S
O99         V107   1.896       .  S
O99         C109   1.265       .  A
O100        V107   1.897       .  S
O100        C110   1.264       .  A
O101        V107   1.895       .  S
O101        C111   1.263       .  A
O102        V107   1.893       .  S
O102        C112   1.264       .  A
O103        V108   1.906       .  S
O103        C112   1.266       .  A
O104        V108   1.905       .  S
O104        C111   1.266       .  A
O105        V108   1.899       .  S
O105        C110   1.265       .  A
O106        V108   1.902       .  S
O106        C109   1.265       .  A
V107        V108   2.085       .  T
C109        C460   1.485       .  S
C110        C433   1.483       .  S
C111        C409   1.480       .  S
C112        C421   1.485       .  S
O113        V805   1.902       .  S
O113        C123   1.265       .  A
O114        V121   1.901       .  S
O114        C124   1.265       .  A
O115        V805   1.896       .  S
O115        C125   1.266       .  A
O116        V121   1.905       .  S
O116        C126   1.265   1_455  A
O117        V122   1.885   1_554  S
O117        C126   1.263       .  A
O118        V806   1.894       .  S
O118        C125   1.263   1_655  A
O119        V122   1.900   1_554  S
O119        C124   1.265   1_655  A
O120        V806   1.897       .  S
O120        C123   1.265   1_655  A
V121        O797   1.902   1_554  S
V121        O799   1.897   1_554  S
V121        V122   2.086   1_454  T
V122        O802   1.894       .  S
V122        O804   1.898       .  S
C123        C373   1.480       .  S
C124        C388   1.481       .  S
C125        C448   1.481       .  S
C126        C400   1.480       .  S
O127        V135   1.901       .  S
O127        C137   1.265       .  A
O128        V135   1.895       .  S
O128        C138   1.264       .  A
O129        V135   1.901       .  S
O129        C139   1.265       .  A
O130        V135   1.902       .  S
O130        C140   1.264       .  A
O131        V136   1.898       .  S
O131        C140   1.265       .  A
O132        V136   1.903       .  S
O132        C139   1.265       .  A
O133        V136   1.896       .  S
O133        C138   1.264       .  A
O134        V136   1.889       .  S
O134        C137   1.263       .  A
V135        V136   2.086       .  T
C137        C349   1.480       .  S
C138        C361   1.481       .  S
C139        C340   1.482       .  S
C140        C328   1.478       .  S
O141        V149   1.899       .  S
O141        C151   1.264       .  A
O142        V149   1.889       .  S
O142        C152   1.263       .  A
O143        V149   1.901       .  S
O143        C153   1.265       .  A
O144        V149   1.903       .  S
O144        C154   1.265       .  A
O145        V150   1.902       .  S
O145        C154   1.266       .  A
O146        V150   1.903       .  S
O146        C153   1.265       .  A
O147        V150   1.899       .  S
O147        C152   1.264       .  A
O148        V150   1.891       .  S
O148        C151   1.264       .  A
V149        V150   2.086       .  T
C151        C352   1.481       .  S
C152        C397   1.478       .  S
C153        C652   1.480       .  S
C154       C1324   1.483   1_554  S
O155        V163   1.894       .  S
O155        C165   1.264       .  A
O156        V163   1.899   1_545  S
O156        C166   1.265       .  A
O157        V163   1.897       .  S
O157        C167   1.263   1_565  A
O158        V163   1.897       .  S
O158        C168   1.264   1_565  A
O159        V164   1.901       .  S
O159        C168   1.264       .  A
O160        V164   1.901       .  S
O160        C167   1.266       .  A
O161        V164   1.895       .  S
O161        C166   1.263       .  A
O162        V164   1.898       .  S
O162        C165   1.264   1_545  A
V163        V164   2.087   1_565  T
C165        C364   1.477       .  S
C166        C436   1.479       .  S
C167        C580   1.476   1_545  S
C168        C568   1.472       .  S
O169        V177   1.899       .  S
O169        C179   1.266       .  A
O170        V177   1.906       .  S
O170        C180   1.267       .  A
O171        V177   1.901       .  S
O171        C181   1.264       .  A
O172        V177   1.898       .  S
O172        C182   1.264       .  A
O173        V178   1.901       .  S
O173        C182   1.265       .  A
O174        V178   1.900       .  S
O174        C181   1.265       .  A
O175        V178   1.892       .  S
O175        C180   1.263       .  A
O176        V178   1.896       .  S
O176        C179   1.263       .  A
V177        V178   2.086       .  T
C179        C316   1.483       .  S
C180        C301   1.485       .  S
C181       C1096   1.482   1_554  S
C182        C424   1.476       .  S
O183        V191   1.893   1_554  S
O183        C193   1.263       .  A
O184        V875   1.899       .  S
O184        C194   1.264       .  A
O185        V191   1.905   1_554  S
O185        C195   1.266       .  A
O186        V875   1.906       .  S
O186        C196   1.266       .  A
O187        V876   1.898       .  S
O187        C196   1.264       .  A
O188        V192   1.897       .  S
O188        C195   1.264       .  A
O189        V876   1.896       .  S
O189        C194   1.265       .  A
O190        V192   1.902       .  S
O190        C193   1.266       .  A
V191        O868   1.900       .  S
V191        O870   1.907       .  S
V191        V192   2.086   1_556  T
V192        O871   1.897   1_554  S
V192        O873   1.896   1_554  S
C193        C313   1.480       .  S
C194        C289   1.483       .  S
C195        C484   1.482       .  S
C196        C469   1.480       .  S
O197        V205   1.892       .  S
O197        C207   1.263       .  A
O198        V205   1.894       .  S
O198        C208   1.263       .  A
O199        V205   1.903       .  S
O199        C209   1.266       .  A
O200        V205   1.902       .  S
O200        C210   1.266       .  A
O201        V206   1.899       .  S
O201        C210   1.264       .  A
O202        V206   1.899       .  S
O202        C209   1.265       .  A
O203        V206   1.904       .  S
O203        C208   1.266       .  A
O204        V206   1.907       .  S
O204        C207   1.267       .  A
V205        V206   2.084       .  T
C207        C277   1.486       .  S
C208        C304   1.486       .  S
C209        C604   1.486       .  S
C210        C616   1.485       .  S
O211        V219   1.902       .  S
O211        C221   1.266       .  A
O212        V219   1.910       .  S
O212        C222   1.267   1_455  A
O213        V219   1.903       .  S
O213        C223   1.265   1_455  A
O214        V219   1.902       .  S
O214        C224   1.265       .  A
O215        V220   1.897       .  S
O215        C224   1.264   1_655  A
O216        V220   1.898       .  S
O216        C223   1.265       .  A
O217        V220   1.894       .  S
O217        C222   1.264       .  A
O218        V220   1.897       .  S
O218        C221   1.264   1_655  A
V219        V220   2.085   1_455  T
C221        C280   1.487       .  S
C222        C265   1.484       .  S
C223        C385   1.483   1_655  S
C224        C376   1.480       .  S
O225        V233   1.894       .  S
O225        C235   1.263       .  A
O226        V233   1.894       .  S
O226        C236   1.263       .  A
O227        V233   1.907       .  S
O227        C237   1.266       .  A
O228        V233   1.902       .  S
O228        C238   1.266       .  A
O229        V234   1.903       .  S
O229        C238   1.265       .  A
O230        V234   1.896       .  S
O230        C237   1.265       .  A
O231        V234   1.898       .  S
O231        C236   1.265       .  A
O232        V234   1.900       .  S
O232        C235   1.265       .  A
V233        V234   2.086       .  T
C235        C493   1.478       .  S
C236        C508   1.475       .  S
C237        C253   1.488       .  S
C238        C268   1.488       .  S
O239        V247   1.902       .  S
O239        C249   1.266       .  A
O240        V247   1.905       .  S
O240        C250   1.266       .  A
O241        V247   1.903       .  S
O241        C251   1.265       .  A
O242        V247   1.895       .  S
O242        C252   1.264       .  A
O243        V248   1.901       .  S
O243        C252   1.265       .  A
O244        V248   1.899       .  S
O244        C251   1.265       .  A
O245        V248   1.900       .  S
O245        C250   1.264       .  A
O246        V248   1.897       .  S
O246        C249   1.264       .  A
V247        V248   2.085       .  T
C249        C325   1.482       .  S
C250       C1021   1.485       .  S
C251        C256   1.489       .  S
C252        C292   1.484       .  S
C253        C254   1.405       .  A
C253        C258   1.412       .  A
C254        C255   1.398   1_545  A
C254        H259   1.083       .  S
C255        C256   1.412       .  A
C255        O260   1.372       .  S
C256        C257   1.408       .  A
C257        C258   1.404   1_565  A
C257        H261   1.083       .  S
C258        O262   1.372       .  S
O260        H264   0.992       .  S
O262        H263   0.992       .  S
C265        C266   1.404       .  A
C265        C270   1.411       .  A
C266        C267   1.405       .  A
C266        H271   1.084       .  S
C267        C268   1.414       .  A
C267        O272   1.371       .  S
C268        C269   1.404       .  A
C269        C270   1.399       .  A
C269        H273   1.083       .  S
C270        O274   1.372       .  S
O272        H276   0.992       .  S
O274        H275   0.992       .  S
C277        C278   1.404       .  A
C277        C282   1.414       .  A
C278        C279   1.401       .  A
C278        H283   1.083       .  S
C279        C280   1.414       .  A
C279        O284   1.371   1_455  S
C280        C281   1.404       .  A
C281        C282   1.399       .  A
C281        H285   1.083       .  S
C282        O286   1.372       .  S
O284        H288   0.992       .  S
O286        H287   0.992       .  S
C289        C290   1.404       .  A
C289        C294   1.412       .  A
C290        C291   1.397       .  A
C290        H295   1.083       .  S
C291        C292   1.412       .  A
C291        O296   1.372       .  S
C292        C293   1.406       .  A
C293        C294   1.401       .  A
C293        H297   1.083       .  S
C294        O298   1.372       .  S
O296        H300   0.992       .  S
O298        H299   0.992       .  S
C301        C302   1.407       .  A
C301        C306   1.410       .  A
C302        C303   1.399   1_545  A
C302        H307   1.083       .  S
C303        C304   1.410       .  A
C303        O308   1.372       .  S
C304        C305   1.408       .  A
C305        C306   1.401   1_565  A
C305        H309   1.083       .  S
C306        O310   1.372       .  S
O308        H312   0.992       .  S
O310        H311   0.992       .  S
C313        C314   1.403       .  A
C313        C318   1.411       .  A
C314        C315   1.401       .  A
C314        H319   1.084       .  S
C315        C316   1.413       .  A
C315        O320   1.372       .  S
C316        C317   1.404       .  A
C317        C318   1.398       .  A
C317        H321   1.083       .  S
C318       O1006   1.372       .  S
O320        H324   0.992       .  S
O322       C1002   1.372       .  S
O322        H323   0.992       .  S
C325        C326   1.405       .  A
C325        C330   1.412       .  A
C326        C327   1.401       .  A
C326        H331   1.084       .  S
C327        C328   1.410       .  A
C327        O332   1.372       .  S
C328        C329   1.402       .  A
C329        C330   1.399       .  A
C329        H333   1.084       .  S
C330        O334   1.372       .  S
O332        H336   0.992       .  S
O334        H335   0.992       .  S
C337        C934   1.485   1_554  S
C337        C338   1.406       .  A
C337        C342   1.412       .  A
C338        C339   1.402       .  A
C338        H343   1.083       .  S
C339        C340   1.408       .  A
C339        O344   1.372       .  S
C340        C341   1.405       .  A
C341        C342   1.403       .  A
C341        H345   1.084       .  S
C342        O346   1.372       .  S
O344        H348   0.992       .  S
O346        H347   0.992       .  S
C349        C350   1.405       .  A
C349        C354   1.411       .  A
C350        C351   1.401       .  A
C350        H355   1.083       .  S
C351        C352   1.412       .  A
C351        O356   1.372       .  S
C352        C353   1.404       .  A
C353        C354   1.394       .  A
C353        H357   1.083       .  S
C354        O358   1.372       .  S
O356        H360   0.992       .  S
O358        H359   0.992       .  S
C361        C362   1.406       .  A
C361        C366   1.412       .  A
C362        C363   1.398       .  A
C362        H367   1.083       .  S
C363        C364   1.409       .  A
C363        O368   1.372       .  S
C364        C365   1.404       .  A
C365        C366   1.398       .  A
C365        H369   1.084       .  S
C366        O370   1.372       .  S
O368        H372   0.992       .  S
O370        H371   0.992       .  S
C373        C374   1.406       .  A
C373        C378   1.409   1_455  A
C374        C375   1.402       .  A
C374        H379   1.084       .  S
C375        C376   1.409       .  A
C375        O380   1.372       .  S
C376        C377   1.404   1_455  A
C377        C378   1.399       .  A
C377        H381   1.084       .  S
C378        O382   1.371       .  S
O380        H384   0.992       .  S
O382        H383   0.992       .  S
C385        C386   1.406       .  A
C385        C390   1.411   1_455  A
C386        C387   1.402       .  A
C386        H391   1.083       .  S
C387        C388   1.410       .  A
C387        O392   1.372       .  S
C388        C389   1.404   1_455  A
C389        C390   1.400       .  A
C389        H393   1.084       .  S
C390        O394   1.371       .  S
O392        H396   0.991       .  S
O394        H395   0.992       .  S
C397        C398   1.406       .  A
C397        C402   1.409       .  A
C398        C399   1.402       .  A
C398        H403   1.083       .  S
C399        C400   1.411       .  A
C399       O1088   1.371   1_655  S
C400        C401   1.404       .  A
C401        C402   1.392       .  A
C401        H405   1.083       .  S
C402        O406   1.372       .  S
O404       C1083   1.372   1_455  S
O404        H408   0.992       .  S
O406        H407   0.992       .  S
C409        C410   1.405       .  A
C409        C414   1.409       .  A
C410        C411   1.399       .  A
C410        H415   1.084       .  S
C411        C412   1.408       .  A
C411        O416   1.372       .  S
C412        C865   1.481       .  S
C412        C413   1.407       .  A
C413        C414   1.403       .  A
C413        H417   1.084       .  S
C414        O418   1.372       .  S
O416        H420   0.992       .  S
O418        H419   0.992       .  S
C421        C422   1.406       .  A
C421        C426   1.413       .  A
C422        C423   1.398       .  A
C422        H427   1.083       .  S
C423        C424   1.408       .  A
C423        O428   1.372       .  S
C424        C425   1.403       .  A
C425        C426   1.403       .  A
C425        H429   1.084       .  S
C426        O430   1.372       .  S
O428        H432   0.992       .  S
O430        H431   0.992       .  S
C433        C434   1.406       .  A
C433        C438   1.412       .  A
C434        C435   1.400       .  A
C434        H439   1.083       .  S
C435        C436   1.411       .  A
C435        O440   1.372       .  S
C436        C437   1.402       .  A
C437        C438   1.398       .  A
C437        H441   1.084       .  S
C438        O442   1.371       .  S
O440        H444   0.992       .  S
O442        H443   0.992       .  S
C445        C446   1.405       .  A
C445        C450   1.412       .  A
C446        C447   1.401       .  A
C446        H451   1.083       .  S
C447        C448   1.413       .  A
C447        O452   1.372   1_455  S
C448        C449   1.403       .  A
C449        C450   1.395       .  A
C449       H1137   1.083       .  S
C450        O454   1.372       .  S
O452        H456   0.992       .  S
H453       C1133   1.083       .  S
O454       H1139   0.992       .  S
H455       O1138   0.992       .  S
C457        C458   1.406       .  A
C457        C462   1.410       .  A
C458        C459   1.401       .  A
C458        H463   1.084       .  S
C459        C460   1.412       .  A
C459        O464   1.372       .  S
C460        C461   1.406       .  A
C461        C462   1.399       .  A
C461        H465   1.083       .  S
C462        O466   1.372       .  S
O464        H468   0.992       .  S
O466        H467   0.992       .  S
C469        C470   1.404       .  A
C469        C474   1.408       .  A
C470        C471   1.400       .  A
C470        H475   1.084       .  S
C471        C472   1.411       .  A
C471        O476   1.372       .  S
C472        C473   1.408       .  A
C473        C474   1.404       .  A
C473        H477   1.083       .  S
C474        O478   1.372       .  S
O476        H480   0.992       .  S
O478        H479   0.992       .  S
C481        C482   1.405       .  A
C481        C486   1.410       .  A
C482        C483   1.401       .  A
C482        H487   1.084       .  S
C483        C484   1.410       .  A
C483        O488   1.372       .  S
C484        C485   1.405       .  A
C485        C486   1.402       .  A
C485        H489   1.084       .  S
C486        O490   1.372       .  S
O488        H492   0.992       .  S
O490        H491   0.992       .  S
C493        C494   1.404       .  A
C493        C498   1.410       .  A
C494        C495   1.398       .  A
C494        H499   1.084       .  S
C495        C496   1.410       .  A
C495        O500   1.372       .  S
C496        C754   1.476       .  S
C496        C497   1.403       .  A
C497        C498   1.399       .  A
C497        H501   1.084       .  S
C498        O502   1.371       .  S
O500        H504   0.992       .  S
O502        H503   0.992       .  S
C505        C506   1.403       .  A
C505        C510   1.411       .  A
C506        C507   1.397       .  A
C506        H511   1.084       .  S
C507        C508   1.410       .  A
C507        O512   1.372       .  S
C508        C509   1.403       .  A
C509        C510   1.399       .  A
C509        H513   1.084       .  S
C510        O514   1.371       .  S
O512        H516   0.992       .  S
O514        H515   0.992       .  S
C517        C518   1.405       .  A
C517        C522   1.410       .  A
C518        C519   1.398       .  A
C518        H523   1.084       .  S
C519        C520   1.408       .  A
C519        O524   1.371       .  S
C520        C521   1.405       .  A
C521        C522   1.402       .  A
C521        H525   1.084       .  S
C522        O526   1.372       .  S
O524        H528   0.992       .  S
O526        H527   0.992       .  S
C529        C782   1.480   1_554  S
C529        C530   1.403       .  A
C529        C534   1.411       .  A
C530        C531   1.400       .  A
C530        H535   1.084       .  S
C531        C532   1.411       .  A
C531        O536   1.372       .  S
C532        C533   1.404       .  A
C533        C534   1.401       .  A
C533        H537   1.084       .  S
C534        O538   1.372       .  S
O536        H540   0.992       .  S
O538        H539   0.992       .  S
C541        C542   1.406       .  A
C541        C546   1.411       .  A
C542        C543   1.397   1_655  A
C542        H547   1.083       .  S
C543        C544   1.409       .  A
C543        O548   1.372       .  S
C544        C545   1.405       .  A
C545        C546   1.398   1_455  A
C545        H549   1.084       .  S
C546        O550   1.372       .  S
O548        H552   0.992       .  S
O550        H551   0.992       .  S
C553        C554   1.405       .  A
C553        C558   1.412       .  A
C554        C555   1.398       .  A
C554        H559   1.083       .  S
C555        C556   1.411       .  A
C555        O560   1.372       .  S
C556        C557   1.406       .  A
C557        C558   1.401       .  A
C557        H561   1.083       .  S
C558        O562   1.372       .  S
O560        H564   0.992       .  S
O562        H563   0.992       .  S
C565        C566   1.407   1_545  A
C565        C570   1.414       .  A
C566        C567   1.402       .  A
C566        H571   1.083       .  S
C567        C568   1.406   1_565  A
C567        O572   1.372       .  S
C568        C569   1.401       .  A
C569        C570   1.400       .  A
C569        H573   1.084       .  S
C570        O574   1.372       .  S
O572        H576   0.992       .  S
O574        H575   0.992       .  S
C577        C578   1.405       .  A
C577        C582   1.414   1_565  A
C578        C579   1.401       .  A
C578        H583   1.084       .  S
C579        C580   1.410       .  A
C579        O584   1.372       .  S
C580        C581   1.401   1_565  A
C581        C582   1.399       .  A
C581        H585   1.084       .  S
C582        O586   1.372       .  S
O584        H588   0.992       .  S
O586        H587   0.992       .  S
C589        C590   1.403       .  A
C589        C594   1.412       .  A
C590        C591   1.396       .  A
C590        H595   1.084       .  S
C591        C592   1.412       .  A
C591        O596   1.372       .  S
C592        C593   1.405       .  A
C593        C594   1.400       .  A
C593        H597   1.083       .  S
C594       O1282   1.372   1_545  S
O596        H600   0.992       .  S
O598       C1278   1.372   1_565  S
O598        H599   0.992       .  S
C601        C602   1.403       .  A
C601        C606   1.409       .  A
C602        C603   1.401       .  A
C602        H607   1.084       .  S
C603        C604   1.412       .  A
C603        O608   1.372       .  S
C604        C605   1.407       .  A
C605        C606   1.402       .  A
C605        H609   1.084       .  S
C606        O610   1.372       .  S
O608        H612   0.992       .  S
O610        H611   0.994       .  S
C613        C712   1.477   1_554  S
C613        C614   1.402       .  A
C613        C618   1.409       .  A
C614        C615   1.401       .  A
C614        H619   1.084       .  S
C615        C616   1.414       .  A
C615        O620   1.371       .  S
C616        C617   1.405       .  A
C617        C618   1.400       .  A
C617        H621   1.083       .  S
C618        O622   1.372       .  S
O620        H624   0.991       .  S
O622        H623   0.992       .  S
C625        C626   1.405       .  A
C625        C630   1.412       .  A
C626        C627   1.395       .  A
C626        H631   1.083       .  S
C627        C628   1.411       .  A
C627        O632   1.372       .  S
C628        C629   1.406       .  A
C629        C630   1.403       .  A
C629        H633   1.083       .  S
C630        O634   1.371       .  S
O632        H636   0.992       .  S
O634        H635   0.992       .  S
C637        C638   1.404       .  A
C637        C642   1.413       .  A
C638        C639   1.403       .  A
C638        H643   1.084       .  S
C639        C640   1.412       .  A
C639        O644   1.371       .  S
C640        C838   1.484       .  S
C640        C641   1.404       .  A
C641        C642   1.402       .  A
C641        H645   1.084       .  S
C642        O646   1.372       .  S
O644        H648   0.992       .  S
O646        H647   0.992       .  S
C649        C650   1.407       .  A
C649        C654   1.412       .  A
C650        C651   1.404       .  A
C650        H655   1.083       .  S
C651        C652   1.409       .  A
C651        O656   1.372       .  S
C652        C653   1.403       .  A
C653        C654   1.400       .  A
C653        H657   1.084       .  S
C654        O658   1.371       .  S
O656        H660   0.992       .  S
O658        H659   0.992       .  S
C661        C662   1.407       .  A
C661        C666   1.411       .  A
C662        C663   1.400       .  A
C662        H667   1.083       .  S
C663        C664   1.410       .  A
C663        O668   1.372       .  S
C664        C665   1.405       .  A
C665        C666   1.397       .  A
C665        H669   1.083       .  S
C666        O670   1.372       .  S
O668        H672   0.992       .  S
O670        H671   0.992       .  S
C673        C674   1.406       .  A
C673        C678   1.411       .  A
C674        C675   1.401   1_455  A
C674        H679   1.083       .  S
C675        C676   1.411       .  A
C675        O680   1.372       .  S
C676        C677   1.405       .  A
C677        C678   1.396   1_655  A
C677        H681   1.083       .  S
C678        O682   1.372       .  S
O680        H684   0.992       .  S
O682        H683   0.994       .  S
O685        V693   1.897       .  S
O685        C695   1.264       .  A
O686        V693   1.892       .  S
O686        C696   1.264       .  A
O687        V693   1.897       .  S
O687        C697   1.264       .  A
O688        V693   1.898       .  S
O688        C698   1.264       .  A
O689        V694   1.905       .  S
O689        C698   1.267       .  A
O690        V694   1.908       .  S
O690        C697   1.267       .  A
O691        V694   1.902       .  S
O691        C696   1.265       .  A
O692        V694   1.897       .  S
O692        C695   1.264       .  A
V693        V694   2.085       .  T
C695       C1345   1.483       .  S
C696       C1360   1.483       .  S
C697       C1333   1.486       .  S
C698       C1321   1.485       .  S
O699        V707   1.894       .  S
O699        C709   1.264       .  A
O700        V707   1.904       .  S
O700        C710   1.265       .  A
O701        V707   1.906       .  S
O701        C711   1.265       .  A
O702        V707   1.902       .  S
O702        C712   1.265       .  A
O703        V708   1.898       .  S
O703        C712   1.263       .  A
O704        V708   1.897       .  S
O704        C711   1.264       .  A
O705        V708   1.891       .  S
O705        C710   1.264       .  A
O706        V708   1.899       .  S
O706        C709   1.265       .  A
V707        V708   2.086       .  T
C709       C1357   1.483       .  S
C710       C1309   1.484       .  S
C711       C1285   1.480       .  S
O713        V721   1.897       .  S
O713        C723   1.265       .  A
O714        C724   1.265   1_545  A
O715        V721   1.894       .  S
O715        C725   1.263   1_545  A
O716        C726   1.264       .  A
O717        C726   1.266   1_565  A
O718        V722   1.903       .  S
O718        C725   1.266       .  A
O719        C724   1.263       .  A
O720        V722   1.895       .  S
O720        C723   1.263   1_565  A
V721        V722   2.085   1_545  T
C723       C1273   1.480       .  S
C724       C1312   1.483       .  S
C725       C1261   1.482       .  S
C726       C1249   1.485       .  S
O727        V735   1.895       .  S
O727        C737   1.265       .  A
O728        V735   1.897       .  S
O728        C738   1.264       .  A
O729        V735   1.897       .  S
O729        C739   1.264       .  A
O730        V735   1.898       .  S
O730        C740   1.264       .  A
O731        V736   1.900       .  S
O731        C740   1.265       .  A
O732        V736   1.902       .  S
O732        C739   1.265       .  A
O733        V736   1.896       .  S
O733        C738   1.264       .  A
O734        V736   1.902       .  S
O734        C737   1.265       .  A
V735        V736   2.086       .  T
C737       C1237   1.485       .  S
C738       C1228   1.479       .  S
C739       C1201   1.480       .  S
C740       C1216   1.480       .  S
O741        V749   1.895       .  S
O741        C751   1.264       .  A
O742        V749   1.891       .  S
O742        C752   1.263       .  A
O743        V749   1.894       .  S
O743        C753   1.264       .  A
O744        V749   1.896       .  S
O744        C754   1.264       .  A
O745        V750   1.897       .  S
O745        C754   1.264       .  A
O746        V750   1.898       .  S
O746        C753   1.264       .  A
O747        V750   1.901       .  S
O747        C752   1.266       .  A
O748        V750   1.897       .  S
O748        C751   1.264       .  A
V749        V750   2.086       .  T
C751       C1225   1.481       .  S
C752       C1276   1.482       .  S
C753       C1189   1.476       .  S
O755        V763   1.902       .  S
O755        C765   1.265       .  A
O756        V763   1.898       .  S
O756        C766   1.265       .  A
O757        V763   1.898       .  S
O757        C767   1.265       .  A
O758        V763   1.900       .  S
O758        C768   1.264       .  A
O759        V764   1.903       .  S
O759        C768   1.266       .  A
O760        V764   1.905       .  S
O760        C767   1.266       .  A
O761        V764   1.899       .  S
O761        C766   1.265       .  A
O762        V764   1.892       .  S
O762        C765   1.264       .  A
V763        V764   2.085       .  T
C765       C1348   1.482       .  S
C766       C1240   1.483       .  S
C767       C1156   1.487       .  S
C768       C1165   1.482       .  S
O769        V777   1.901       .  S
O769        C779   1.265       .  A
O770        V777   1.905       .  S
O770        C780   1.266       .  A
O771        V777   1.899       .  S
O771        C781   1.264       .  A
O772        V777   1.898       .  S
O772        C782   1.265       .  A
O773        V778   1.901       .  S
O773        C782   1.265       .  A
O774        V778   1.899       .  S
O774        C781   1.265       .  A
O775        V778   1.888       .  S
O775        C780   1.262       .  A
O776        V778   1.896       .  S
O776        C779   1.264       .  A
V777        V778   2.086       .  T
C779       C1141   1.482       .  S
C780       C1129   1.482       .  S
C781       C1204   1.478       .  S
O783        V791   1.896       .  S
O783        C793   1.264       .  A
O784        V791   1.897       .  S
O784        C794   1.264       .  A
O785        V791   1.896       .  S
O785        C795   1.264       .  A
O786        V791   1.894       .  S
O786        C796   1.264       .  A
O787        V792   1.906       .  S
O787        C796   1.266       .  A
O788        V792   1.905       .  S
O788        C795   1.266       .  A
O789        V792   1.899       .  S
O789        C794   1.265       .  A
O790        V792   1.902       .  S
O790        C793   1.265       .  A
V791        V792   2.085       .  T
C793       C1144   1.485       .  S
C794       C1117   1.484       .  S
C795       C1093   1.480       .  S
C796       C1105   1.485       .  S
O797        C807   1.265       .  A
O798        V805   1.901       .  S
O798        C808   1.265       .  A
O799        C809   1.266       .  A
O800        V805   1.903       .  S
O800        C810   1.265   1_455  A
O801        V806   1.886       .  S
O801        C810   1.263       .  A
O802        C809   1.263   1_655  A
O803        V806   1.900       .  S
O803        C808   1.265   1_655  A
O804        C807   1.265   1_655  A
V805        V806   2.086   1_455  T
C807       C1057   1.480       .  S
C808       C1072   1.481       .  S
C809       C1132   1.482       .  S
C810       C1084   1.480       .  S
O811        V819   1.901       .  S
O811        C821   1.265       .  A
O812        V819   1.896       .  S
O812        C822   1.264       .  A
O813        V819   1.901       .  S
O813        C823   1.265       .  A
O814        V819   1.901       .  S
O814        C824   1.264       .  A
O815        V820   1.898       .  S
O815        C824   1.265       .  A
O816        V820   1.903       .  S
O816        C823   1.265       .  A
O817        V820   1.897       .  S
O817        C822   1.265       .  A
O818        V820   1.890       .  S
O818        C821   1.263       .  A
V819        V820   2.086       .  T
C821       C1033   1.481       .  S
C822       C1045   1.482       .  S
C823       C1024   1.482       .  S
C824       C1012   1.478       .  S
O825        V833   1.899       .  S
O825        C835   1.264       .  A
O826        V833   1.889       .  S
O826        C836   1.263       .  A
O827        V833   1.901       .  S
O827        C837   1.265       .  A
O828        V833   1.903       .  S
O828        C838   1.265       .  A
O829        V834   1.903       .  S
O829        C838   1.266       .  A
O830        V834   1.903       .  S
O830        C837   1.265       .  A
O831        V834   1.898       .  S
O831        C836   1.264       .  A
O832        V834   1.892       .  S
O832        C835   1.264       .  A
V833        V834   2.086       .  T
C835       C1036   1.481       .  S
C836       C1081   1.478       .  S
C837       C1336   1.481       .  S
O839        V847   1.895       .  S
O839        C849   1.264       .  A
O840        V847   1.900   1_545  S
O840        C850   1.266       .  A
O841        V847   1.897       .  S
O841        C851   1.263   1_565  A
O842        V847   1.897       .  S
O842        C852   1.264   1_565  A
O843        V848   1.901       .  S
O843        C852   1.264       .  A
O844        V848   1.901       .  S
O844        C851   1.265       .  A
O845        V848   1.895       .  S
O845        C850   1.263       .  A
O846        V848   1.899       .  S
O846        C849   1.265   1_545  A
V847        V848   2.087   1_565  T
C849       C1048   1.479       .  S
C850       C1120   1.480       .  S
C851       C1264   1.476   1_545  S
C852       C1252   1.472       .  S
O853        V861   1.900       .  S
O853        C863   1.266       .  A
O854        V861   1.906       .  S
O854        C864   1.267       .  A
O855        V861   1.901       .  S
O855        C865   1.264       .  A
O856        V861   1.898       .  S
O856        C866   1.263       .  A
O857        V862   1.901       .  S
O857        C866   1.265       .  A
O858        V862   1.900       .  S
O858        C865   1.265       .  A
O859        V862   1.891       .  S
O859        C864   1.263       .  A
O860        V862   1.896       .  S
O860        C863   1.263       .  A
V861        V862   2.086       .  T
C863       C1000   1.483       .  S
C864        C985   1.484       .  S
C866       C1108   1.475       .  S
O867        V875   1.893       .  S
O867        C877   1.263       .  A
O868        C878   1.264       .  A
O869        V875   1.905       .  S
O869        C879   1.266       .  A
O870        C880   1.266       .  A
O871        C880   1.264       .  A
O872        V876   1.897       .  S
O872        C879   1.264       .  A
O873        C878   1.265       .  A
O874        V876   1.903       .  S
O874        C877   1.266       .  A
V875        V876   2.086       .  T
C877        C997   1.480       .  S
C878        C973   1.484       .  S
C879       C1168   1.482       .  S
C880       C1153   1.480       .  S
O881        V889   1.891       .  S
O881        C891   1.262       .  A
O882        V889   1.893       .  S
O882        C892   1.263       .  A
O883        V889   1.903       .  S
O883        C893   1.266       .  A
O884        V889   1.902       .  S
O884        C894   1.266       .  A
O885        V890   1.899       .  S
O885        C894   1.264       .  A
O886        V890   1.899       .  S
O886        C893   1.265       .  A
O887        V890   1.904       .  S
O887        C892   1.266       .  A
O888        V890   1.908       .  S
O888        C891   1.267       .  A
V889        V890   2.084       .  T
C891        C961   1.486       .  S
C892        C988   1.485       .  S
C893       C1288   1.486       .  S
C894       C1300   1.485       .  S
O895        V903   1.902       .  S
O895        C905   1.266       .  A
O896        V903   1.910       .  S
O896        C906   1.267   1_455  A
O897        V903   1.902       .  S
O897        C907   1.265   1_455  A
O898        V903   1.902       .  S
O898        C908   1.265       .  A
O899        V904   1.898       .  S
O899        C908   1.264   1_655  A
O900        V904   1.898       .  S
O900        C907   1.265       .  A
O901        V904   1.894       .  S
O901        C906   1.264       .  A
O902        V904   1.898       .  S
O902        C905   1.264   1_655  A
V903        V904   2.085   1_455  T
C905        C964   1.486       .  S
C906        C949   1.484       .  S
C907       C1069   1.483   1_655  S
C908       C1060   1.480       .  S
O909        V917   1.892       .  S
O909        C919   1.263       .  A
O910        V917   1.893       .  S
O910        C920   1.263       .  A
O911        V917   1.906       .  S
O911        C921   1.266       .  A
O912        V917   1.902       .  S
O912        C922   1.266       .  A
O913        V918   1.904       .  S
O913        C922   1.265       .  A
O914        V918   1.896       .  S
O914        C921   1.265       .  A
O915        V918   1.898       .  S
O915        C920   1.265       .  A
O916        V918   1.901       .  S
O916        C919   1.265       .  A
V917        V918   2.086       .  T
C919       C1177   1.477       .  S
C920       C1192   1.475       .  S
C921        C937   1.487       .  S
C922        C952   1.488       .  S
O923        V931   1.902       .  S
O923        C933   1.266       .  A
O924        V931   1.905       .  S
O924        C934   1.266       .  A
O925        V931   1.903       .  S
O925        C935   1.266       .  A
O926        V931   1.896       .  S
O926        C936   1.264       .  A
O927        V932   1.901       .  S
O927        C936   1.265       .  A
O928        V932   1.899       .  S
O928        C935   1.265       .  A
O929        V932   1.900       .  S
O929        C934   1.264       .  A
O930        V932   1.897       .  S
O930        C933   1.264       .  A
V931        V932   2.085       .  T
C933       C1009   1.482       .  S
C935        C940   1.489       .  S
C936        C976   1.485       .  S
C937        C938   1.405       .  A
C937        C942   1.412       .  A
C938        C939   1.398   1_545  A
C938        H943   1.083       .  S
C939        C940   1.412       .  A
C939        O944   1.372       .  S
C940        C941   1.408       .  A
C941        C942   1.404   1_565  A
C941        H945   1.083       .  S
C942        O946   1.372       .  S
O944        H948   0.992       .  S
O946        H947   0.992       .  S
C949        C950   1.404       .  A
C949        C954   1.411       .  A
C950        C951   1.405       .  A
C950        H955   1.084       .  S
C951        C952   1.414       .  A
C951        O956   1.371       .  S
C952        C953   1.404       .  A
C953        C954   1.399       .  A
C953        H957   1.083       .  S
C954        O958   1.372       .  S
O956        H960   0.992       .  S
O958        H959   0.992       .  S
C961        C962   1.405       .  A
C961        C966   1.414       .  A
C962        C963   1.402       .  A
C962        H967   1.083       .  S
C963        C964   1.413       .  A
C963        O968   1.371   1_455  S
C964        C965   1.404       .  A
C965        C966   1.399       .  A
C965        H969   1.083       .  S
C966        O970   1.372       .  S
O968        H972   0.992       .  S
O970        H971   0.992       .  S
C973        C974   1.404       .  A
C973        C978   1.412       .  A
C974        C975   1.398       .  A
C974        H979   1.083       .  S
C975        C976   1.412       .  A
C975        O980   1.372       .  S
C976        C977   1.406       .  A
C977        C978   1.401       .  A
C977        H981   1.083       .  S
C978        O982   1.372       .  S
O980        H984   0.992       .  S
O982        H983   0.992       .  S
C985        C986   1.407       .  A
C985        C990   1.409       .  A
C986        C987   1.399   1_545  A
C986        H991   1.083       .  S
C987        C988   1.410       .  A
C987        O992   1.372       .  S
C988        C989   1.408       .  A
C989        C990   1.401   1_565  A
C989        H993   1.083       .  S
C990        O994   1.372       .  S
O992        H996   0.992       .  S
O994        H995   0.992       .  S
C997        C998   1.403       .  A
C997       C1002   1.411       .  A
C998        C999   1.401       .  A
C998       H1003   1.084       .  S
C999       C1000   1.414       .  A
C999       O1004   1.372       .  S
C1000      C1001   1.404       .  A
C1001      C1002   1.398       .  A
C1001      H1005   1.083       .  S
O1004      H1008   0.992       .  S
O1006      H1007   0.992       .  S
C1009      C1010   1.405       .  A
C1009      C1014   1.412       .  A
C1010      C1011   1.401       .  A
C1010      H1015   1.084       .  S
C1011      C1012   1.411       .  A
C1011      O1016   1.372       .  S
C1012      C1013   1.402       .  A
C1013      C1014   1.399       .  A
C1013      H1017   1.084       .  S
C1014      O1018   1.372       .  S
O1016      H1020   0.992       .  S
O1018      H1019   0.992       .  S
C1021      C1022   1.406       .  A
C1021      C1026   1.412       .  A
C1022      C1023   1.402       .  A
C1022      H1027   1.083       .  S
C1023      C1024   1.409       .  A
C1023      O1028   1.372       .  S
C1024      C1025   1.405       .  A
C1025      C1026   1.403       .  A
C1025      H1029   1.084       .  S
C1026      O1030   1.372       .  S
O1028      H1032   0.992       .  S
O1030      H1031   0.992       .  S
C1033      C1034   1.405       .  A
C1033      C1038   1.411       .  A
C1034      C1035   1.401       .  A
C1034      H1039   1.083       .  S
C1035      C1036   1.412       .  A
C1035      O1040   1.372       .  S
C1036      C1037   1.404       .  A
C1037      C1038   1.395       .  A
C1037      H1041   1.083       .  S
C1038      O1042   1.372       .  S
O1040      H1044   0.992       .  S
O1042      H1043   0.992       .  S
C1045      C1046   1.406       .  A
C1045      C1050   1.412       .  A
C1046      C1047   1.399       .  A
C1046      H1051   1.083       .  S
C1047      C1048   1.410       .  A
C1047      O1052   1.372   1_565  S
C1048      C1049   1.404       .  A
C1049      C1050   1.398       .  A
C1049      H1053   1.084       .  S
C1050      O1054   1.372       .  S
O1052      H1056   0.991   1_545  S
O1054      H1055   0.992       .  S
C1057      C1058   1.405       .  A
C1057      C1062   1.409   1_455  A
C1058      C1059   1.402       .  A
C1058      H1063   1.084       .  S
C1059      C1060   1.409       .  A
C1059      O1064   1.372       .  S
C1060      C1061   1.405   1_455  A
C1061      C1062   1.399       .  A
C1061      H1065   1.084       .  S
C1062      O1066   1.371       .  S
O1064      H1068   0.992       .  S
O1066      H1067   0.992       .  S
C1069      C1070   1.406       .  A
C1069      C1074   1.411   1_455  A
C1070      C1071   1.402       .  A
C1070      H1075   1.083       .  S
C1071      C1072   1.410       .  A
C1071      O1076   1.372       .  S
C1072      C1073   1.404   1_455  A
C1073      C1074   1.400       .  A
C1073      H1077   1.084       .  S
C1074      O1078   1.371       .  S
O1076      H1080   0.991       .  S
O1078      H1079   0.991       .  S
C1081      C1082   1.406       .  A
C1081      C1086   1.410       .  A
C1082      C1083   1.402       .  A
C1082      H1087   1.083       .  S
C1083      C1084   1.411       .  A
C1084      C1085   1.404       .  A
C1085      C1086   1.392       .  A
C1085      H1089   1.083       .  S
C1086      O1090   1.372       .  S
O1088      H1092   0.992       .  S
O1090      H1091   0.992       .  S
C1093      C1094   1.405       .  A
C1093      C1098   1.409       .  A
C1094      C1095   1.399       .  A
C1094      H1099   1.084       .  S
C1095      C1096   1.409       .  A
C1095      O1100   1.372       .  S
C1096      C1097   1.407       .  A
C1097      C1098   1.403       .  A
C1097      H1101   1.084       .  S
C1098      O1102   1.372       .  S
O1100      H1104   0.992       .  S
O1102      H1103   0.992       .  S
C1105      C1106   1.406       .  A
C1105      C1110   1.413       .  A
C1106      C1107   1.398       .  A
C1106      H1111   1.083       .  S
C1107      C1108   1.408       .  A
C1107      O1112   1.372       .  S
C1108      C1109   1.403       .  A
C1109      C1110   1.403       .  A
C1109      H1113   1.084       .  S
C1110      O1114   1.372       .  S
O1112      H1116   0.992       .  S
O1114      H1115   0.992       .  S
C1117      C1118   1.406       .  A
C1117      C1122   1.412       .  A
C1118      C1119   1.400       .  A
C1118      H1123   1.083       .  S
C1119      C1120   1.411       .  A
C1119      O1124   1.372       .  S
C1120      C1121   1.403       .  A
C1121      C1122   1.399       .  A
C1121      H1125   1.084       .  S
C1122      O1126   1.371       .  S
O1124      H1128   0.992       .  S
O1126      H1127   0.992       .  S
C1129      C1130   1.405       .  A
C1129      C1134   1.413       .  A
C1130      C1131   1.401       .  A
C1130      H1135   1.083       .  S
C1131      C1132   1.413       .  A
C1131      O1136   1.372   1_455  S
C1132      C1133   1.403       .  A
C1133      C1134   1.395       .  A
C1134      O1138   1.372       .  S
O1136      H1140   0.992       .  S
C1141      C1142   1.405       .  A
C1141      C1146   1.410       .  A
C1142      C1143   1.401       .  A
C1142      H1147   1.084       .  S
C1143      C1144   1.412       .  A
C1143      O1148   1.372       .  S
C1144      C1145   1.406       .  A
C1145      C1146   1.399       .  A
C1145      H1149   1.083       .  S
C1146      O1150   1.372       .  S
O1148      H1152   0.992       .  S
O1150      H1151   0.992       .  S
C1153      C1154   1.403       .  A
C1153      C1158   1.408       .  A
C1154      C1155   1.400       .  A
C1154      H1159   1.084       .  S
C1155      C1156   1.412       .  A
C1155      O1160   1.372       .  S
C1156      C1157   1.408       .  A
C1157      C1158   1.405       .  A
C1157      H1161   1.083       .  S
C1158      O1162   1.372       .  S
O1160      H1164   0.992       .  S
O1162      H1163   0.992       .  S
C1165      C1166   1.405       .  A
C1165      C1170   1.409       .  A
C1166      C1167   1.401       .  A
C1166      H1171   1.084       .  S
C1167      C1168   1.410       .  A
C1167      O1172   1.372       .  S
C1168      C1169   1.405       .  A
C1169      C1170   1.402       .  A
C1169      H1173   1.084       .  S
C1170      O1174   1.372       .  S
O1172      H1176   0.992       .  S
O1174      H1175   0.992       .  S
C1177      C1178   1.404       .  A
C1177      C1182   1.410       .  A
C1178      C1179   1.398       .  A
C1178      H1183   1.084       .  S
C1179      C1180   1.409       .  A
C1179      O1184   1.372       .  S
C1180      C1181   1.403       .  A
C1181      C1182   1.399       .  A
C1181      H1185   1.084       .  S
C1182      O1186   1.371       .  S
O1184      H1188   0.992       .  S
O1186      H1187   0.992       .  S
C1189      C1190   1.403       .  A
C1189      C1194   1.411       .  A
C1190      C1191   1.397       .  A
C1190      H1195   1.084       .  S
C1191      C1192   1.410       .  A
C1191      O1196   1.372       .  S
C1192      C1193   1.403       .  A
C1193      C1194   1.399       .  A
C1193      H1197   1.084       .  S
C1194      O1198   1.371       .  S
O1196      H1200   0.992       .  S
O1198      H1199   0.992       .  S
C1201      C1202   1.405       .  A
C1201      C1206   1.410       .  A
C1202      C1203   1.398       .  A
C1202      H1207   1.084       .  S
C1203      C1204   1.408       .  A
C1203      O1208   1.371       .  S
C1204      C1205   1.405       .  A
C1205      C1206   1.402       .  A
C1205      H1209   1.084       .  S
C1206      O1210   1.372       .  S
O1208      H1212   0.992       .  S
O1210      H1211   0.992       .  S
C1213      C1214   1.404       .  A
C1213      C1218   1.411       .  A
C1214      C1215   1.399       .  A
C1214      H1219   1.084       .  S
C1215      C1216   1.410       .  A
C1215      O1220   1.372       .  S
C1216      C1217   1.404       .  A
C1217      C1218   1.401       .  A
C1217      H1221   1.084       .  S
C1218      O1222   1.372       .  S
O1220      H1224   0.992       .  S
O1222      H1223   0.991       .  S
C1225      C1226   1.406       .  A
C1225      C1230   1.411       .  A
C1226      C1227   1.398   1_655  A
C1226      H1231   1.083       .  S
C1227      C1228   1.409       .  A
C1227      O1232   1.372       .  S
C1228      C1229   1.405       .  A
C1229      C1230   1.398   1_455  A
C1229      H1233   1.084       .  S
C1230      O1234   1.372       .  S
O1232      H1236   0.992       .  S
O1234      H1235   0.992       .  S
C1237      C1238   1.405       .  A
C1237      C1242   1.412       .  A
C1238      C1239   1.398       .  A
C1238      H1243   1.083       .  S
C1239      C1240   1.411       .  A
C1239      O1244   1.372       .  S
C1240      C1241   1.406       .  A
C1241      C1242   1.401       .  A
C1241      H1245   1.083       .  S
C1242      O1246   1.372       .  S
O1244      H1248   0.992       .  S
O1246      H1247   0.992       .  S
C1249      C1250   1.407   1_545  A
C1249      C1254   1.414       .  A
C1250      C1251   1.401       .  A
C1250      H1255   1.083       .  S
C1251      C1252   1.406   1_565  A
C1251      O1256   1.372       .  S
C1252      C1253   1.401       .  A
C1253      C1254   1.400       .  A
C1253      H1257   1.084       .  S
C1254      O1258   1.372       .  S
O1256      H1260   0.992       .  S
O1258      H1259   0.992       .  S
C1261      C1262   1.405       .  A
C1261      C1266   1.413   1_565  A
C1262      C1263   1.401       .  A
C1262      H1267   1.084       .  S
C1263      C1264   1.410       .  A
C1263      O1268   1.372       .  S
C1264      C1265   1.401   1_565  A
C1265      C1266   1.399       .  A
C1265      H1269   1.084       .  S
C1266      O1270   1.372       .  S
O1268      H1272   0.992       .  S
O1270      H1271   0.992       .  S
C1273      C1274   1.403       .  A
C1273      C1278   1.412       .  A
C1274      C1275   1.396       .  A
C1274      H1279   1.084       .  S
C1275      C1276   1.412       .  A
C1275      O1280   1.372       .  S
C1276      C1277   1.405       .  A
C1277      C1278   1.400       .  A
C1277      H1281   1.083       .  S
O1280      H1284   0.992       .  S
O1282      H1283   0.992       .  S
C1285      C1286   1.403       .  A
C1285      C1290   1.409       .  A
C1286      C1287   1.401       .  A
C1286      H1291   1.084       .  S
C1287      C1288   1.412       .  A
C1287      O1292   1.372       .  S
C1288      C1289   1.407       .  A
C1289      C1290   1.402       .  A
C1289      H1293   1.084       .  S
C1290      O1294   1.372       .  S
O1292      H1296   0.992       .  S
O1294      H1295   0.994       .  S
C1297      C1298   1.402       .  A
C1297      C1302   1.409       .  A
C1298      C1299   1.401       .  A
C1298      H1303   1.084       .  S
C1299      C1300   1.414       .  A
C1299      O1304   1.371       .  S
C1300      C1301   1.405       .  A
C1301      C1302   1.400       .  A
C1301      H1305   1.083       .  S
C1302      O1306   1.372       .  S
O1304      H1308   0.991       .  S
O1306      H1307   0.992       .  S
C1309      C1310   1.404       .  A
C1309      C1314   1.412       .  A
C1310      C1311   1.395       .  A
C1310      H1315   1.083       .  S
C1311      C1312   1.411       .  A
C1311      O1316   1.372       .  S
C1312      C1313   1.406       .  A
C1313      C1314   1.403       .  A
C1313      H1317   1.083       .  S
C1314      O1318   1.372       .  S
O1316      H1320   0.992       .  S
O1318      H1319   0.992       .  S
C1321      C1322   1.404       .  A
C1321      C1326   1.413       .  A
C1322      C1323   1.402       .  A
C1322      H1327   1.084       .  S
C1323      C1324   1.412       .  A
C1323      O1328   1.371       .  S
C1324      C1325   1.403       .  A
C1325      C1326   1.401       .  A
C1325      H1329   1.084       .  S
C1326      O1330   1.372       .  S
O1328      H1332   0.992       .  S
O1330      H1331   0.992       .  S
C1333      C1334   1.407       .  A
C1333      C1338   1.412       .  A
C1334      C1335   1.404       .  A
C1334      H1339   1.083       .  S
C1335      C1336   1.409       .  A
C1335      O1340   1.372       .  S
C1336      C1337   1.403       .  A
C1337      C1338   1.400       .  A
C1337      H1341   1.084       .  S
C1338      O1342   1.371       .  S
O1340      H1344   0.992       .  S
O1342      H1343   0.992       .  S
C1345      C1346   1.407       .  A
C1345      C1350   1.411       .  A
C1346      C1347   1.401       .  A
C1346      H1351   1.083       .  S
C1347      C1348   1.411       .  A
C1347      O1352   1.372       .  S
C1348      C1349   1.405       .  A
C1349      C1350   1.397       .  A
C1349      H1353   1.083       .  S
C1350      O1354   1.372       .  S
O1352      H1356   0.992       .  S
O1354      H1355   0.992       .  S
C1357      C1358   1.407       .  A
C1357      C1362   1.411       .  A
C1358      C1359   1.402   1_455  A
C1358      H1363   1.083       .  S
C1359      C1360   1.411       .  A
C1359      O1364   1.372       .  S
C1360      C1361   1.405       .  A
C1361      C1362   1.396   1_655  A
C1361      H1365   1.083       .  S
C1362      O1366   1.372       .  S
O1364      H1368   0.992       .  S
O1366      H1367   0.994       .  S
