geometry optimzed in LAMMPS
_audit_creation_date              2020-12-01 
_audit_creation_method            'lammps2cif' 
_symmetry_space_group_name_H-M    'P1' 
_symmetry_Int_Tables_number       1 
_symmetry_cell_setting            triclinic 
loop_ 
_symmetry_equiv_pos_as_xyz 
  x,y,z 
_cell_length_a                    37.66171051 
_cell_length_b                    38.04641331796305 
_cell_length_c                    50.83540688652532 
_cell_angle_alpha                 90.04262892718005 
_cell_angle_beta                  90.13762564591823 
_cell_angle_gamma                 89.98975718421084 
loop_ 
_atom_site_label 
_atom_site_type_symbol 
_atom_site_fract_x 
_atom_site_fract_y 
_atom_site_fract_z 
_atom_site_charge 
C1          C  0.43372069  0.32128089  0.35646530     0.79400
N2          N  0.40634483  0.30425771  0.34443625    -0.78900
C3          C  0.39454603  0.31497413  0.32044364     0.81800
N4          N  0.41026099  0.34268858  0.30836196    -0.78800
C5          C  0.43786376  0.35944097  0.32004590     0.81900
N6          N  0.44944273  0.34867239  0.34395783    -0.80600
C7          C  0.40040725  0.35404452  0.13697884     0.79400
N8          N  0.38110589  0.32922028  0.14986526    -0.78900
C9          C  0.38678674  0.32297295  0.17584279     0.81800
N10         N  0.41106012  0.34238997  0.18919878    -0.78800
C11         C  0.43139513  0.36618387  0.17635051     0.81900
N12         N  0.42576619  0.37215455  0.15040140    -0.80600
C13         C  0.16909640  0.35602650  0.36083218     0.79400
N14         N  0.18758721  0.33047297  0.34801340    -0.78900
C15         C  0.18085627  0.32327267  0.32230770     0.81800
N16         N  0.15616757  0.34236421  0.30910421    -0.77200
C17         C  0.13640246  0.36666143  0.32196723     0.81900
N18         N  0.14318543  0.37357049  0.34763055    -0.80600
C19         C  0.43184227  0.11699633  0.14142470     0.79400
N20         N  0.40524439  0.13412922  0.15409693    -0.78900
C21         C  0.39500925  0.12417805  0.17853397     0.81800
N22         N  0.41135748  0.09674465  0.19049389    -0.78800
C23         C  0.43820393  0.07963820  0.17820888     0.81900
N24         N  0.44837193  0.08977988  0.15375243    -0.80600
N25         N  0.99158642  0.42974238  0.19943186    -0.06900
N26         N  0.98357555  0.40598737  0.18138001    -0.59100
N27         N  0.46755425  0.51011720  0.21815515    -0.06600
N28         N  0.44450922  0.03535398  0.21383230    -0.61200
N29         N  0.99211473  0.50995268  0.19948829    -0.06200
N30         N  0.98560934  0.03474124  0.18208067    -0.59000
N31         N  0.46761790  0.42931292  0.21864479    -0.05900
N32         N  0.44357203  0.40481951  0.21422946    -0.61500
C33         C  0.45397134  0.39021316  0.19130735     0.95200
C34         C  0.45618735  0.05045133  0.19139470     0.95000
N35         N  0.99063470  0.50948322  0.29927922    -0.07100
N36         N  0.98196954  0.03253903  0.31788489    -0.59600
N37         N  0.46711654  0.42941172  0.28037454    -0.05200
N38         N  0.44380103  0.40410870  0.28455302    -0.60900
N39         N  0.99183943  0.42934662  0.29864841    -0.07200
N40         N  0.98567106  0.40422529  0.31590397    -0.59900
N41         N  0.46700315  0.51021003  0.28036215    -0.04900
N42         N  0.44265462  0.03408365  0.28518192    -0.61000
Mn43       Mn  0.46640212  0.46984079  0.24934695     1.18400
C44         C  0.45237127  0.04798681  0.30855734     0.97300
C45         C  0.45560834  0.38873235  0.30688931     0.98000
N46         N  0.07673345  0.50981973  0.19902331    -0.07200
N47         N  0.08605978  0.03170015  0.18022420    -0.63500
N48         N  0.09986917  0.42944152  0.21821610    -0.06000
N49         N  0.12285487  0.40377011  0.21421530    -0.64200
N50         N  0.07546808  0.42948323  0.19965842    -0.06700
N51         N  0.08137955  0.40404859  0.18255719    -0.63700
N52         N  0.09995135  0.01023043  0.21833121    -0.05600
N53         N  0.12523367  0.03324425  0.21334167    -0.64400
Mn54       Mn  0.03393574  0.46982630  0.19862917     1.10700
C55         C  0.11614204  0.04667469  0.18969539     0.98500
C56         C  0.11092292  0.38821454  0.19194433     0.98600
N57         N  0.07585618  0.42984007  0.29891983    -0.06700
N58         N  0.08394481  0.40597841  0.31685286    -0.62100
N59         N  0.09905278  0.01045954  0.28046116    -0.06000
N60         N  0.12220417  0.03588821  0.28463727    -0.58800
N61         N  0.07491057  0.51026735  0.29904813    -0.07300
N62         N  0.08123818  0.03528750  0.31650203    -0.61600
N63         N  0.09951195  0.42959354  0.27992171    -0.06300
N64         N  0.12369173  0.40519761  0.28421117    -0.58800
Mn65       Mn  0.03335995  0.46974672  0.29977249     1.20200
Mn66       Mn  0.10050959  0.47009059  0.24926462     1.10100
Cl67       Cl  0.03359388  0.47001256  0.24919862    -0.86800
C68         C  0.11347606  0.39046656  0.30710691     0.95600
C69         C  0.11073646  0.05111857  0.30709681     0.95300
C70         C  0.13378626  0.32079938  0.14229965     0.79400
N71         N  0.11764405  0.34810803  0.15469478    -0.78900
C72         C  0.12869277  0.35877862  0.17883944     0.81800
N73         N  0.15629809  0.34218624  0.19068414    -0.78800
C74         C  0.17253818  0.31479408  0.17854468     0.81900
N75         N  0.16126260  0.30421652  0.15444856    -0.80600
C76         C  0.39492970  0.08105089  0.36185323     0.79400
N77         N  0.37715393  0.10717690  0.34906614    -0.78900
C78         C  0.38504508  0.11523512  0.32371961     0.81800
N79         N  0.41013988  0.09637705  0.31082757    -0.78800
C80         C  0.42906836  0.07130428  0.32360915     0.81900
N81         N  0.42109595  0.06342336  0.34895862    -0.80600
C82         C  0.13949848  0.11517916  0.35782158     0.79400
N83         N  0.12136642  0.08899318  0.34542607    -0.78900
C84         C  0.12943082  0.07999053  0.32024775     0.81800
N85         N  0.15561565  0.09732134  0.30734341    -0.78800
C86         C  0.17324540  0.12392652  0.31936197     0.81900
N87         N  0.16515574  0.13266914  0.34445134    -0.80600
C88         C  0.17670428  0.07700281  0.13715834     0.79400
N89         N  0.14988849  0.05984101  0.14972990    -0.78900
C90         C  0.14028091  0.06918279  0.17453593     0.81800
N91         N  0.15830551  0.09515971  0.18708104    -0.78800
C92         C  0.18402069  0.11346891  0.17441852     0.81900
N93         N  0.19347449  0.10398548  0.14966836    -0.80600
N94         N  0.32431571  0.26083055  0.29903117    -0.06900
N95         N  0.34946690  0.26723077  0.31654697    -0.59100
N96         N  0.24299425  0.28526754  0.27976200    -0.06600
N97         N  0.21916542  0.30987199  0.28437429    -0.61200
N98         N  0.24326836  0.26193719  0.29885171    -0.06200
N99         N  0.22000253  0.27069348  0.31718155    -0.59000
N100        N  0.32444091  0.28493206  0.28046338    -0.05900
N101        N  0.34978155  0.30814440  0.28487942    -0.61500
C102        C  0.36514723  0.29673320  0.30736289     0.95200
C103        C  0.20483343  0.30031348  0.30758748     0.95000
N104        N  0.24315928  0.26087312  0.19932759    -0.07100
N105        N  0.21777614  0.26729089  0.18202304    -0.59600
N106        N  0.32455640  0.28523192  0.21840877    -0.05200
N107        N  0.34837625  0.30981597  0.21377286    -0.60900
N108        N  0.32412474  0.26197208  0.19923523    -0.07200
N109        N  0.34729151  0.27072147  0.18085821    -0.59900
N110        N  0.24319183  0.28495727  0.21794276    -0.04900
N111        N  0.21770612  0.30810853  0.21381259    -0.61000
Mn112      Mn  0.28383368  0.28588303  0.24913717     1.18400
C113        C  0.20210749  0.29670991  0.19142945     0.97300
C114        C  0.36251186  0.30029862  0.19046915     0.98000
N115        N  0.24262218  0.17848706  0.29808011    -0.07200
N116        N  0.21724055  0.17206177  0.31524080    -0.63500
N117        N  0.32432002  0.15404557  0.28020713    -0.06000
N118        N  0.34790089  0.12930158  0.28515760    -0.64200
N119        N  0.32363726  0.17724463  0.29940766    -0.06700
N120        N  0.34633874  0.16822405  0.31814366    -0.63700
N121        N  0.24273769  0.15442424  0.27946805    -0.05600
N122        N  0.21722558  0.13125860  0.28343794    -0.64400
Mn123      Mn  0.28346185  0.21961235  0.29961950     1.10700
C124        C  0.20157979  0.14270086  0.30574598     0.98500
C125        C  0.36165109  0.13859209  0.30868759     0.98600
N126        N  0.32511850  0.17853741  0.19964662    -0.06700
N127        N  0.35042901  0.17210408  0.18238458    -0.62100
N128        N  0.24372271  0.15378536  0.21782686    -0.06000
N129        N  0.22051426  0.12869389  0.21295501    -0.58800
N130        N  0.24408742  0.17690545  0.19859473    -0.07300
N131        N  0.22156167  0.16737944  0.17985650    -0.61600
N132        N  0.32517763  0.15453380  0.21828303    -0.06300
N133        N  0.35064933  0.13136658  0.21418864    -0.58800
Mn134      Mn  0.28407154  0.21959332  0.19839362     1.20200
Mn135      Mn  0.28402825  0.15346127  0.24895394     1.10100
Cl136      Cl  0.28386255  0.21965248  0.24901537    -0.86800
C137        C  0.36614934  0.14273287  0.19181306     0.95600
C138        C  0.20662301  0.13761209  0.18942777     0.95300
N139        N  0.28871245  0.45924179  0.53803173    -0.37400
N140        N  0.24928290  0.42135080  0.49798866    -0.58000
N141        N  0.28357815  0.46505647  0.45771912    -0.37400
N142        N  0.32710399  0.49905993  0.49781850    -0.58000
C143        C  0.27370867  0.43382642  0.55288395     0.26200
C144        C  0.31372776  0.47512297  0.55293177     0.26200
C145        C  0.26696254  0.44083223  0.44255433     0.26200
C146        C  0.30788915  0.48155960  0.44249107     0.26200
C147        C  0.23217369  0.40907824  0.51942342     0.34800
C148        C  0.22945812  0.41210837  0.47697439     0.34800
C149        C  0.33922004  0.01611802  0.51913640     0.34800
C150        C  0.33686532  0.01863196  0.47666329     0.34800
C151        C  0.28932033  0.43368699  0.57763666    -0.22700
C152        C  0.31449469  0.45977751  0.57768758    -0.22700
C153        C  0.28047636  0.44238930  0.41721062    -0.22700
C154        C  0.30631435  0.46797155  0.41719251    -0.22700
C155        C  0.20160689  0.39139645  0.51200782    -0.23800
C156        C  0.19987746  0.39329551  0.48504971    -0.23800
C157        C  0.35534822  0.04739202  0.51197150    -0.23800
C158        C  0.35393160  0.04895577  0.48499167    -0.23800
C159        C  0.24454131  0.41253851  0.54550877    -0.19100
C160        C  0.33594665  0.00379010  0.54516596    -0.19100
C161        C  0.33060008  0.00939895  0.45015495    -0.19100
C162        C  0.23879782  0.41850160  0.45053462    -0.19100
H163        H  0.28279566  0.41698551  0.59416202     0.13800
H164        H  0.33105032  0.46699201  0.59426427     0.13800
H165        H  0.27247235  0.42680358  0.40039509     0.13800
H166        H  0.32200733  0.47582412  0.40038349     0.13800
H167        H  0.18267119  0.37837073  0.52467274     0.12100
H168        H  0.17932525  0.38193803  0.47279146     0.12100
H169        H  0.36692662  0.06698845  0.52483394     0.12100
H170        H  0.36410952  0.07006737  0.47290846     0.12100
H171        H  0.28070685  0.46706880  0.51948387     0.25300
H172        H  0.27723859  0.47127208  0.47696750     0.25300
N173        N  0.03628885  0.21409529  0.03791728    -0.37400
N174        N  0.50163483  0.17319152  0.99749111    -0.58000
N175        N  0.03971370  0.21396335  0.95768863    -0.37400
N176        N  0.07771369  0.25187940  0.99862743    -0.58000
C177        C  0.02131395  0.18834607  0.05243561     0.26200
C178        C  0.06134361  0.22945757  0.05308854     0.26200
C179        C  0.02440395  0.18903948  0.94242894     0.26200
C180        C  0.06508900  0.23000887  0.94316304     0.26200
C181        C  0.48282721  0.16182806  0.01841554     0.34800
C182        C  0.48419263  0.16194252  0.97588030     0.34800
C183        C  0.08736653  0.27032317  0.02014489     0.34800
C184        C  0.08969097  0.27001051  0.97766771     0.34800
C185        C  0.03688069  0.18750105  0.07718055    -0.22700
C186        C  0.06216852  0.21341674  0.07758285    -0.22700
C187        C  0.03990507  0.18955248  0.91770829    -0.22700
C188        C  0.06553625  0.21533402  0.91816889    -0.22700
C189        C  0.45361894  0.14265946  0.01015047    -0.23800
C190        C  0.45449279  0.14267889  0.98312483    -0.23800
C191        C  0.10603930  0.30014504  0.01293253    -0.23800
C192        C  0.10763945  0.29989467  0.98593611    -0.23800
C193        C  0.49283655  0.16715207  0.04483390    -0.19100
C194        C  0.08179071  0.25912518  0.04619762    -0.19100
C195        C  0.08656147  0.25871699  0.95132224    -0.19100
C196        C  0.49554000  0.16743290  0.94974088    -0.19100
H197        H  0.03043445  0.17027229  0.09341027     0.13800
H198        H  0.07893870  0.21998589  0.09418880     0.13800
H199        H  0.03327007  0.17322045  0.90096464     0.13800
H200        H  0.08231156  0.22262972  0.90180853     0.13800
H201        H  0.43401258  0.12973888  0.02230707     0.12100
H202        H  0.43555639  0.12980470  0.97029152     0.12100
H203        H  0.11784366  0.31962331  0.02578309     0.12100
H204        H  0.12085980  0.31925917  0.97383709     0.12100
H205        H  0.02809154  0.22246587  0.01946228     0.25300
H206        H  0.03180235  0.22089969  0.97646891     0.25300
N207        N  0.04335890  0.22020765  0.45967745    -0.37400
N208        N  0.07527426  0.17725298  0.50111559    -0.58000
N209        N  0.03449852  0.21661267  0.53960059    -0.37400
N210        N  0.99867796  0.25577577  0.49801076    -0.58000
C211        C  0.05983762  0.19519880  0.44528184     0.26200
C212        C  0.01980547  0.23642629  0.44363224     0.26200
C213        C  0.04740037  0.19004150  0.55453080     0.26200
C214        C  0.00693342  0.23100254  0.55280838     0.26200
C215        C  0.09613003  0.16768236  0.48078657     0.34800
C216        C  0.09190232  0.16629252  0.52317890     0.34800
C217        C  0.49060464  0.27509835  0.47676399     0.34800
C218        C  0.48616234  0.27364283  0.51914183     0.34800
C219        C  0.04698313  0.19593770  0.41966781    -0.22700
C220        C  0.02175727  0.22192143  0.41863666    -0.22700
C221        C  0.02781593  0.18754429  0.57751013    -0.22700
C222        C  0.00229380  0.21341481  0.57643514    -0.22700
C223        C  0.12594079  0.15011444  0.48985955    -0.23800
C224        C  0.12339288  0.14943045  0.51681606    -0.23800
C225        C  0.47295016  0.30551578  0.48406897    -0.23800
C226        C  0.47022787  0.30465597  0.51103033    -0.23800
C227        C  0.08756950  0.17303327  0.45411351    -0.19100
C228        C  0.49739944  0.26466943  0.45066531    -0.19100
C229        C  0.48759411  0.26139103  0.54529070    -0.19100
C230        C  0.07790185  0.16965355  0.54879115    -0.19100
H231        H  0.05508897  0.17964283  0.40328589     0.13800
H232        H  0.00672669  0.22939715  0.40134915     0.13800
H233        H  0.03182833  0.16927028  0.59355115     0.13800
H234        H  0.98285209  0.21901203  0.59151562     0.13800
H235        H  0.14723734  0.13899073  0.47826515     0.12100
H236        H  0.14239492  0.13762276  0.53014550     0.12100
H237        H  0.46296762  0.32603413  0.47129734     0.12100
H238        H  0.45763505  0.32436144  0.52321614     0.12100
H239        H  0.04925691  0.22707111  0.47890982     0.25300
H240        H  0.04559760  0.22614983  0.52238168     0.25300
N241        N  0.27981470  0.45663166  0.96012428    -0.37400
N242        N  0.32114222  0.41828337  0.99887883    -0.58000
N243        N  0.28866638  0.46170484  0.03992855    -0.37400
N244        N  0.24340574  0.49617288  0.00109954    -0.58000
C245        C  0.29355905  0.43063505  0.94517895     0.26200
C246        C  0.25290860  0.47116094  0.94631710     0.26200
C247        C  0.30572627  0.43724671  0.05458034     0.26200
C248        C  0.26511182  0.47824309  0.05579207     0.26200
C249        C  0.33781475  0.40714229  0.97691925     0.34800
C250        C  0.34199164  0.40896082  0.01931522     0.34800
C251        C  0.23208898  0.01397690  0.97962278     0.34800
C252        C  0.23591045  0.01651651  0.02207409     0.34800
C253        C  0.27516792  0.42857719  0.92156428    -0.22700
C254        C  0.24951726  0.45419035  0.92226560    -0.22700
C255        C  0.29313556  0.43855935  0.08019370    -0.22700
C256        C  0.26756039  0.46437924  0.08095220    -0.22700
C257        C  0.36910967  0.39006200  0.98338903    -0.23800
C258        C  0.37173944  0.39114555  0.01034996    -0.23800
C259        C  0.21558518  0.04491738  0.98714020    -0.23800
C260        C  0.21795025  0.04650798  0.01411041    -0.23800
C261        C  0.32420097  0.41087507  0.95124238    -0.19100
C262        C  0.23470603  0.00159902  0.95354113    -0.19100
C263        C  0.24309512  0.00725448  0.04845840    -0.19100
C264        C  0.33382329  0.41519818  0.04598287    -0.19100
H265        H  0.28018993  0.41094205  0.90527599     0.13800
H266        H  0.23098665  0.46011209  0.90658209     0.13800
H267        H  0.30169059  0.42272910  0.09671815     0.13800
H268        H  0.25265409  0.47223097  0.09815726     0.13800
H269        H  0.38789368  0.37792149  0.97010339     0.12100
H270        H  0.39309476  0.38013201  0.02200514     0.12100
H271        H  0.20301036  0.06418480  0.97453420     0.12100
H272        H  0.20766395  0.06734553  0.02643484     0.12100
H273        H  0.29017264  0.46594918  0.97770482     0.25300
H274        H  0.29433893  0.46818007  0.02059305     0.25300
C275        C  0.38478761  0.36106008  0.85401874     0.79400
N276        N  0.36890911  0.33324124  0.84195560    -0.78900
C277        C  0.37989571  0.32239052  0.81785338     0.81800
N278        N  0.40689851  0.33940320  0.80570568    -0.78800
C279        C  0.42274381  0.36728940  0.81749951     0.81900
N280        N  0.41179332  0.37785265  0.84160853    -0.80600
C281        C  0.42907976  0.10039883  0.86020539     0.79400
N282        N  0.44715335  0.07460656  0.84739035    -0.78900
C283        C  0.43921451  0.06636575  0.82208040     0.81800
N284        N  0.41379564  0.08479445  0.80914406    -0.78800
C285        C  0.39454086  0.10956198  0.82193636     0.81900
N286        N  0.40248116  0.11753167  0.84730437    -0.80600
C287        C  0.18640757  0.06172668  0.85624939     0.79400
N288        N  0.20316761  0.08826765  0.84343581    -0.78900
C289        C  0.19372943  0.09717634  0.81856493     0.81800
N290        N  0.16720624  0.07945080  0.80631135    -0.78800
C291        C  0.15052783  0.05258188  0.81873621     0.81900
N292        N  0.16009227  0.04384684  0.84365327    -0.80600
C293        C  0.15084821  0.32312654  0.86060055     0.79400
N294        N  0.17618502  0.30422369  0.84770911    -0.78900
C295        C  0.18238027  0.30967077  0.82168716     0.81800
N296        N  0.16258377  0.33354819  0.80830863    -0.78800
C297        C  0.13845148  0.35360125  0.82116660     0.81900
N298        N  0.13248040  0.34801799  0.84708099    -0.80600
C299        C  0.14615423  0.09978924  0.63681877     0.79400
N300        N  0.17313168  0.11660832  0.64946837    -0.78900
C301        C  0.18302559  0.10695921  0.67407922     0.81800
N302        N  0.16512565  0.08086349  0.68646554    -0.78800
C303        C  0.13924984  0.06272884  0.67368854     0.81900
N304        N  0.12937020  0.07269809  0.64906586    -0.80600
C305        C  0.39375613  0.06515429  0.63933521     0.79400
N306        N  0.42040209  0.04804718  0.65200097    -0.78900
C307        C  0.43060057  0.05805484  0.67648805     0.81800
N308        N  0.41390100  0.08517108  0.68857581    -0.78800
C309        C  0.38675821  0.10194584  0.67630845     0.81900
N310        N  0.37674465  0.09187919  0.65179541    -0.80600
N311        N  0.32981107  0.24901878  0.69771643    -0.06900
N312        N  0.33815011  0.27189918  0.67914616    -0.59100
N313        N  0.35443027  0.16951789  0.71689479    -0.06600
N314        N  0.37872267  0.14527935  0.71235466    -0.61200
N315        N  0.32999827  0.16908434  0.69832372    -0.06200
N316        N  0.33731243  0.14475468  0.68063578    -0.59000
N317        N  0.35340084  0.25001635  0.71684558    -0.05900
N318        N  0.37780180  0.27397306  0.71197601    -0.61500
C319        C  0.36782622  0.28757006  0.68857471     0.95200
C320        C  0.36763138  0.13010105  0.68974995     0.95000
N321        N  0.33123959  0.16972800  0.79796451    -0.07100
N322        N  0.34053870  0.14703426  0.81645170    -0.59600
N323        N  0.35293358  0.25054688  0.77896467    -0.05200
N324        N  0.37523123  0.27680979  0.78289998    -0.60900
N325        N  0.32861926  0.24997235  0.79751950    -0.07200
N326        N  0.33393540  0.27566732  0.81453381    -0.59900
N327        N  0.35473937  0.16966467  0.77884963    -0.04900
N328        N  0.37996606  0.14648382  0.78360380    -0.61000
Mn329      Mn  0.35471018  0.20995876  0.74793369     1.18400
C330        C  0.37064289  0.13236310  0.80692671     0.97300
C331        C  0.36298636  0.29219328  0.80509328     0.98000
N332        N  0.24528178  0.16834612  0.69793236    -0.07200
N333        N  0.23645224  0.14530915  0.67951976    -0.63500
N334        N  0.22139734  0.24873804  0.71693431    -0.06000
N335        N  0.19825991  0.27428258  0.71297308    -0.64200
N336        N  0.24567216  0.24882646  0.69834496    -0.06700
N337        N  0.23948477  0.27427593  0.68128845    -0.63700
N338        N  0.22187243  0.16774475  0.71709756    -0.05600
N339        N  0.19725619  0.14388125  0.71247963    -0.64400
Mn340      Mn  0.28762441  0.20873691  0.69731345     1.10700
C341        C  0.20683814  0.12980932  0.68919256     0.98500
C342        C  0.20991517  0.28994189  0.69072527     0.98600
N343        N  0.24453686  0.24797104  0.79811975    -0.06700
N344        N  0.23554525  0.27082376  0.81657994    -0.62100
N345        N  0.22250968  0.16732992  0.77885321    -0.06000
N346        N  0.19971841  0.14154096  0.78291190    -0.58800
N347        N  0.24691628  0.16770216  0.79743165    -0.07300
N348        N  0.24108394  0.14240790  0.81464506    -0.61600
N349        N  0.22099485  0.24822191  0.77895806    -0.06300
N350        N  0.19598177  0.27162359  0.78367124    -0.58800
Mn351      Mn  0.28785048  0.20880667  0.79853541     1.20200
Mn352      Mn  0.22085069  0.20803335  0.74794260     1.10100
Cl353      Cl  0.28777563  0.20886025  0.74792130    -0.86800
C354        C  0.20548764  0.28567655  0.80703353     0.95600
C355        C  0.21169867  0.12626310  0.80524108     0.95300
C356        C  0.42187610  0.32628155  0.63534518     0.79400
N357        N  0.43883162  0.35232914  0.64873389    -0.78900
C358        C  0.43180780  0.35824694  0.67449186     0.81800
N359        N  0.40823894  0.33740063  0.68719664    -0.78800
C360        C  0.38997765  0.31230895  0.67387807     0.81900
N361        N  0.39720832  0.30642817  0.64805953    -0.80600
C362        C  0.18516526  0.35745838  0.64144646     0.79400
N363        N  0.20222636  0.33039128  0.65359261    -0.78900
C364        C  0.19168678  0.31929725  0.67778139     0.81800
N365        N  0.16394181  0.33530286  0.68989767    -0.78800
C366        C  0.14701567  0.36246164  0.67799139     0.81900
N367        N  0.15764522  0.37328508  0.65389835    -0.80600
N368        N  0.49503569  0.41924789  0.79742416    -0.06900
N369        N  0.46897922  0.41389617  0.81429885    -0.59100
N370        N  0.07609331  0.39208921  0.77881695    -0.06600
N371        N  0.09971057  0.36718796  0.78327123    -0.61200
N372        N  0.07641815  0.41544026  0.79791852    -0.06200
N373        N  0.09991256  0.40645473  0.81607286    -0.59000
N374        N  0.49445666  0.39519123  0.77880806    -0.05900
N375        N  0.46794777  0.37312497  0.78248487    -0.61500
C376        C  0.45232973  0.38512925  0.80460432     0.95200
C377        C  0.11458382  0.37665682  0.80638572     0.95000
N378        N  0.07674353  0.41660963  0.69855982    -0.07100
N379        N  0.10226722  0.41005215  0.68153536    -0.59600
N380        N  0.49431413  0.39483570  0.71739445    -0.05200
N381        N  0.46948154  0.37117901  0.71287410    -0.60900
N382        N  0.49529929  0.41812081  0.69829804    -0.07200
N383        N  0.47151336  0.41022725  0.68004042    -0.59900
N384        N  0.07617028  0.39242608  0.71705441    -0.04900
N385        N  0.10148046  0.36899318  0.71310289    -0.61000
Mn386      Mn  0.03535307  0.39270214  0.74798890     1.18400
C387        C  0.11747849  0.38041119  0.69092400     0.97300
C388        C  0.45524579  0.38124436  0.68970344     0.98000
N389        N  0.07971406  0.99895422  0.79769696    -0.07200
N390        N  0.10517437  0.00502721  0.81504389    -0.63500
N391        N  0.49923320  0.02591333  0.77912236    -0.06000
N392        N  0.47645839  0.05142163  0.78389517    -0.64200
N393        N  0.49908028  0.00276183  0.79833806    -0.06700
N394        N  0.47660478  0.01255036  0.81691933    -0.63700
N395        N  0.08031082  0.02279161  0.77895345    -0.05600
N396        N  0.10630222  0.04538252  0.78299274    -0.64400
Mn397      Mn  0.03752375  0.45894406  0.79866544     1.10700
C398        C  0.12157372  0.03395342  0.80547037     0.98500
C399        C  0.46233129  0.04261136  0.80733392     0.98600
N400        N  0.49788507  0.00138292  0.69859810    -0.06700
N401        N  0.47330714  0.00881793  0.68094372    -0.62100
N402        N  0.07968549  0.02320060  0.71725759    -0.06000
N403        N  0.10342439  0.04774254  0.71239127    -0.58800
N404        N  0.07842108  0.00025123  0.69789971    -0.07300
N405        N  0.10083483  0.00940747  0.67906902    -0.61600
N406        N  0.49863047  0.02550648  0.71715704    -0.06300
N407        N  0.47436924  0.04980449  0.71261540    -0.58800
Mn408      Mn  0.03716058  0.45898701  0.69747578     1.20200
Mn409      Mn  0.03929264  0.02499345  0.74812772     1.10100
Cl410      Cl  0.03732960  0.45891667  0.74806234    -0.86800
C411        C  0.45883983  0.03894403  0.69003357     0.95600
C412        C  0.11667028  0.03872075  0.68872622     0.95300
C413        C  0.24169715  0.04474814  0.91782745    -0.27100
C414        C  0.21910625  0.02245666  0.93183430    -0.15200
C415        C  0.18454433  0.01598891  0.92255058     0.35400
C416        C  0.17378259  0.03081344  0.89850623    -0.26600
C417        C  0.19719305  0.05142102  0.88337274    -0.15800
C418        C  0.23124379  0.05947076  0.89374516     0.36500
N419        N  0.25595197  0.08080527  0.87930865    -0.90100
H420        H  0.26833632  0.04929544  0.92520430     0.17600
H421        H  0.14742315  0.02506811  0.89109760     0.17600
N422        N  0.16023670  0.49262860  0.93686168    -0.89100
H423        H  0.28076402  0.08116333  0.88858188     0.35000
H424        H  0.24659792  0.10666230  0.87994785     0.40100
H425        H  0.17141667  0.46747733  0.93663002     0.39700
H426        H  0.13571047  0.49061623  0.92730095     0.34600
C427        C  0.36541431  0.41778982  0.91416268    -0.27100
C428        C  0.34374710  0.39531161  0.92882907    -0.15200
C429        C  0.33757225  0.36067700  0.91992910     0.35400
C430        C  0.35199365  0.35001083  0.89582680    -0.26600
C431        C  0.37237470  0.37305224  0.88030316    -0.15800
C432        C  0.37963108  0.40730030  0.88993553     0.36500
N433        N  0.40007348  0.43193294  0.87478016    -0.90100
H434        H  0.36974727  0.44439796  0.92111239     0.17600
H435        H  0.34656880  0.32355818  0.88900772     0.17600
N436        N  0.31577997  0.33620275  0.93416949    -0.89100
H437        H  0.40393876  0.45532136  0.88521872     0.35000
H438        H  0.38507751  0.43849429  0.85815727     0.40100
H439        H  0.30622056  0.34704301  0.95163052     0.39700
H440        H  0.33189036  0.31501081  0.93957604     0.34600
C441        C  0.09690664  0.11452491  0.57189819    -0.27100
C442        C  0.09628319  0.15139997  0.57088171    -0.15200
C443        C  0.11335626  0.17092002  0.59075950     0.35400
C444        C  0.13008322  0.15321680  0.61157312    -0.26600
C445        C  0.13024349  0.11627207  0.61305151    -0.15800
C446        C  0.11356990  0.09678694  0.59272387     0.36500
N447        N  0.11378911  0.05914651  0.59229856    -0.90100
H448        H  0.08411081  0.09946569  0.55645411     0.17600
H449        H  0.14240150  0.16853216  0.62708007     0.17600
N450        N  0.11334870  0.20870021  0.58978753    -0.89100
H451        H  0.09948633  0.04979833  0.60840736     0.35000
H452        H  0.14008036  0.05051306  0.59374854     0.40100
H453        H  0.12775583  0.21624399  0.57317057     0.39700
H454        H  0.12665687  0.21918082  0.60607547     0.34600
C455        C  0.43277292  0.27866553  0.56987966    -0.27100
C456        C  0.46953952  0.28189323  0.56624199    -0.15200
C457        C  0.48955946  0.30313177  0.58341934     0.35400
C458        C  0.47269352  0.31949822  0.60470849    -0.26600
C459        C  0.43628487  0.31447001  0.60960867    -0.15800
C460        C  0.41586367  0.29477365  0.59146176     0.36500
N461        N  0.37827899  0.29074489  0.59523497    -0.90100
H462        H  0.41752446  0.26266962  0.55630483     0.17600
H463        H  0.48866930  0.33458900  0.61839350     0.17600
N464        N  0.52709122  0.30755750  0.57936336    -0.89100
H465        H  0.36727036  0.27538231  0.58023012     0.35000
H466        H  0.36677303  0.31566861  0.59363180     0.40100
H467        H  0.53936465  0.28334584  0.58277106     0.39700
H468        H  0.53770449  0.32499824  0.59320817     0.34600
C469        C  0.15489328  0.28266140  0.89931675    -0.27100
C470        C  0.13838674  0.31168621  0.88717092    -0.15200
C471        C  0.10736483  0.32594408  0.89894945     0.35400
C472        C  0.09174357  0.30854227  0.92034188    -0.26600
C473        C  0.10683639  0.27807755  0.93090738    -0.15800
C474        C  0.13964831  0.26581914  0.92105801     0.36500
N475        N  0.15779184  0.23603222  0.93216431    -0.90100
H476        H  0.17917165  0.27187682  0.89126140     0.17600
H477        H  0.06708781  0.31831394  0.92852567     0.17600
N478        N  0.09102072  0.35730388  0.88880098    -0.89100
H479        H  0.15780320  0.21606221  0.91802665     0.35000
H480        H  0.14466455  0.22618973  0.94864323     0.40100
H481        H  0.10867480  0.37806743  0.89207834     0.39700
H482        H  0.06789424  0.36338121  0.89919803     0.34600
C483        C  0.43133763  0.14812038  0.89389662    -0.27100
C484        C  0.44270918  0.11457796  0.88569850    -0.15200
C485        C  0.46966713  0.09739550  0.90038986     0.35400
C486        C  0.48603080  0.11508700  0.92147041    -0.26600
C487        C  0.47583063  0.14922178  0.92844375    -0.15800
C488        C  0.44756995  0.16566713  0.91491763     0.36500
N489        N  0.43480073  0.20013676  0.92174413    -0.90100
H490        H  0.41047958  0.16170595  0.88329053     0.17600
H491        H  0.50729852  0.10246135  0.93232339     0.17600
N492        N  0.48077154  0.06235075  0.89374593    -0.89100
H493        H  0.44006380  0.21680542  0.90588322     0.35000
H494        H  0.44808032  0.21058415  0.93799516     0.40100
H495        H  0.45924831  0.04562339  0.89715300     0.39700
H496        H  0.50124894  0.05397271  0.90617627     0.34600
C497        C  0.34619816  0.06080515  0.60558189    -0.27100
C498        C  0.38122870  0.05301193  0.61317372    -0.15200
C499        C  0.40266948  0.03234008  0.59631209     0.35400
C500        C  0.38772635  0.01800663  0.57334507    -0.26600
C501        C  0.35218249  0.02431228  0.56677821    -0.15800
C502        C  0.33138977  0.04670431  0.58269712     0.36500
N503        N  0.29507150  0.05520017  0.57656207    -0.90100
H504        H  0.32950752  0.07697953  0.61800772     0.17600
H505        H  0.40345007  0.00089652  0.56091587     0.17600
N506        N  0.43927840  0.02561222  0.60261450    -0.89100
H507        H  0.27907842  0.04391726  0.59106604     0.35000
H508        H  0.28703265  0.04462396  0.55856991     0.40100
H509        H  0.45270119  0.04964899  0.60190642     0.39700
H510        H  0.45094117  0.00949949  0.58837761     0.34600
C511        C  0.20164911  0.41583697  0.58183375    -0.27100
C512        C  0.22486075  0.39502631  0.56708615    -0.15200
C513        C  0.23275755  0.36049548  0.57558017     0.35400
C514        C  0.21873596  0.34853850  0.59951644    -0.26600
C515        C  0.19693935  0.37012696  0.61516372    -0.15800
C516        C  0.18776630  0.40394277  0.60571377     0.36500
N517        N  0.16576815  0.42716061  0.62074993    -0.90100
H518        H  0.19573908  0.44237553  0.57540354     0.17600
H519        H  0.22562690  0.32234123  0.60613575     0.17600
N520        N  0.25594070  0.33750234  0.56113974    -0.89100
H521        H  0.14379435  0.43398808  0.60923145     0.35000
H522        H  0.18020393  0.45005878  0.62468110     0.40100
H523        H  0.26473804  0.34912544  0.54375268     0.39700
H524        H  0.24109884  0.31549077  0.55555914     0.34600
C525        C  0.22838951  0.06787195  0.10717208    -0.27100
C526        C  0.19213432  0.06227875  0.11249777    -0.15200
C527        C  0.17246452  0.04035470  0.09542092     0.35400
C528        C  0.18948100  0.02346601  0.07433714    -0.26600
C529        C  0.22590706  0.02805584  0.06976829    -0.15800
C530        C  0.24548400  0.05112921  0.08613725     0.36500
N531        N  0.28257845  0.05828074  0.08207364    -0.90100
H532        H  0.24409424  0.08462596  0.11992085     0.17600
H533        H  0.17427522  0.00610942  0.06169427     0.17600
N534        N  0.13519457  0.03514969  0.09932151    -0.89100
H535        H  0.29655459  0.04775214  0.09802253     0.35000
H536        H  0.29227885  0.04615594  0.06513953     0.40100
H537        H  0.13070114  0.00823969  0.10180483     0.39700
H538        H  0.12194152  0.04316586  0.08225169     0.34600
C539        C  0.14519130  0.15777537  0.39488549    -0.27100
C540        C  0.13069327  0.12617379  0.38515603    -0.15200
C541        C  0.10711545  0.10701311  0.40132905     0.35400
C542        C  0.09610658  0.12129563  0.42540851    -0.26600
C543        C  0.10813618  0.15435193  0.43365657    -0.15800
C544        C  0.13417383  0.17209757  0.41883066     0.36500
N545        N  0.14898607  0.20522107  0.42697349    -0.90100
H546        H  0.16415946  0.17254827  0.38334104     0.17600
H547        H  0.07622687  0.10759872  0.43688379     0.17600
N548        N  0.09345321  0.07358503  0.39321952    -0.89100
H549        H  0.14017884  0.22438616  0.41375177     0.35000
H550        H  0.14015080  0.21258881  0.44562731     0.40100
H551        H  0.06575614  0.07530506  0.39249348     0.39700
H552        H  0.10026216  0.05505267  0.40754687     0.34600
C553        C  0.34445149  0.07178003  0.39278866    -0.27100
C554        C  0.38065335  0.06677159  0.38700215    -0.15200
C555        C  0.40096386  0.04460972  0.40356615     0.35400
C556        C  0.38454421  0.02694924  0.42458387    -0.26600
C557        C  0.34803209  0.03059645  0.42921083    -0.15800
C558        C  0.32805383  0.05363472  0.41346656     0.36500
N559        N  0.29026666  0.55684565  0.41728675    -0.90100
H560        H  0.32815854  0.08845617  0.38041431     0.17600
H561        H  0.40014376  0.00952440  0.43688608     0.17600
N562        N  0.43812488  0.03955980  0.39897586    -0.89100
H563        H  0.27722442  0.05083749  0.40096410     0.35000
H564        H  0.28474450  0.58345679  0.42034761     0.40100
H565        H  0.44255171  0.01273474  0.39591794     0.39700
H566        H  0.45188964  0.04704135  0.41596512     0.34600
C567        C  0.14391194  0.28674406  0.10106014    -0.27100
C568        C  0.12138383  0.30846440  0.11605516    -0.15200
C569        C  0.08719043  0.31669725  0.10608389     0.35400
C570        C  0.07621744  0.30217690  0.08204439    -0.26600
C571        C  0.09809660  0.27914139  0.06803116    -0.15800
C572        C  0.13267520  0.27182132  0.07729042     0.36500
N573        N  0.15636573  0.24818237  0.06388954    -0.90100
H574        H  0.17030544  0.28043106  0.10814700     0.17600
H575        H  0.04958528  0.30724406  0.07484175     0.17600
N576        N  0.06300718  0.33835841  0.12076425    -0.89100
H577        H  0.17855808  0.26269773  0.05806480     0.35000
H578        H  0.14507588  0.23806288  0.04672282     0.40100
H579        H  0.05562989  0.32428303  0.13754385     0.39700
H580        H  0.03964501  0.34275804  0.11010566     0.34600
C581        C  0.44728850  0.17157344  0.07955036    -0.27100
C582        C  0.47196952  0.15072021  0.06621339    -0.15200
C583        C  0.48115920  0.11750462  0.07622727     0.35400
C584        C  0.46676193  0.10650719  0.10034736    -0.26600
C585        C  0.44344475  0.12822005  0.11470452    -0.15800
C586        C  0.43299210  0.16079772  0.10363376     0.36500
N587        N  0.40917031  0.18390739  0.11715779    -0.90100
H588        H  0.44057294  0.19733079  0.07190090     0.17600
H589        H  0.47467046  0.08126591  0.10826208     0.17600
N590        N  0.00489556  0.09564177  0.06183256    -0.89100
H591        H  0.38738179  0.18869962  0.10488725     0.35000
H592        H  0.42221354  0.20778481  0.12040973     0.40100
H593        H  0.99331925  0.08894327  0.04380371     0.39700
H594        H  0.00918486  0.07208061  0.07192732     0.34600
C595        C  0.21001305  0.35144577  0.39951973    -0.27100
C596        C  0.18220085  0.36943868  0.38670314    -0.15200
C597        C  0.17098471  0.40225878  0.39707712     0.35400
C598        C  0.18923377  0.41724328  0.41834895    -0.26600
C599        C  0.21822698  0.40014930  0.42977701    -0.15800
C600        C  0.22808748  0.36649822  0.42097180     0.36500
N601        N  0.25735763  0.34849661  0.43317788    -0.90100
H602        H  0.21867843  0.32612150  0.39221139     0.17600
H603        H  0.18130297  0.44288062  0.42557043     0.17600
N604        N  0.14194925  0.42126876  0.38567338    -0.89100
H605        H  0.26176031  0.32426091  0.42404299     0.35000
H606        H  0.25015134  0.34300703  0.45259270     0.40100
H607        H  0.15133221  0.44576467  0.37948063     0.39700
H608        H  0.12293531  0.42547520  0.40029492     0.34600
C609        C  0.39596844  0.40201347  0.10386795    -0.27100
C610        C  0.38871832  0.36689761  0.11072864    -0.15200
C611        C  0.36701068  0.34659048  0.09388872     0.35400
C612        C  0.35084176  0.36239037  0.07195828    -0.26600
C613        C  0.35610125  0.39812519  0.06644403    -0.15800
C614        C  0.38003772  0.41782635  0.08200981     0.36500
N615        N  0.38833003  0.45400096  0.07655119    -0.90100
H616        H  0.41289132  0.41809162  0.11624000     0.17600
H617        H  0.33298907  0.34705131  0.05975961     0.17600
N618        N  0.36086743  0.31012154  0.09914414    -0.89100
H619        H  0.37769367  0.46923947  0.09173837     0.35000
H620        H  0.37679265  0.46263907  0.05903258     0.40100
H621        H  0.36931690  0.29568743  0.08280536     0.39700
H622        H  0.33351839  0.30633601  0.10121009     0.34600
C623        C  0.48225072  0.32020311  0.38987236    -0.27100
C624        C  0.44796514  0.30935200  0.38228157    -0.15200
C625        C  0.42867640  0.28705935  0.39927384     0.35400
C626        C  0.44476113  0.27433851  0.42229218    -0.26600
C627        C  0.47961150  0.28376953  0.42891591    -0.15800
C628        C  0.49821905  0.30786562  0.41294973     0.36500
N629        N  0.03361417  0.32050191  0.41912731    -0.90100
H630        H  0.49736444  0.33787308  0.37750497     0.17600
H631        H  0.43035732  0.25609032  0.43467676     0.17600
N632        N  0.39282075  0.27724025  0.39338343    -0.89100
H633        H  0.05086971  0.31090901  0.40472870     0.35000
H634        H  0.04246695  0.31080478  0.43718291     0.40100
H635        H  0.37676428  0.28539883  0.40899254     0.39700
H636        H  0.39160207  0.24982026  0.39232470     0.34600
C637        C  0.43377383  0.82172536  0.35678879     0.79400
N638        N  0.40637528  0.80469240  0.34479803    -0.78900
C639        C  0.39465476  0.81526458  0.32074951     0.81800
N640        N  0.41047537  0.84285666  0.30857526    -0.78800
C641        C  0.43811299  0.85960856  0.32022533     0.81900
N642        N  0.44960552  0.84897325  0.34418899    -0.80600
C643        C  0.40009017  0.85450833  0.13750576     0.79400
N644        N  0.38082624  0.82966123  0.15038594    -0.78900
C645        C  0.38671048  0.82323638  0.17630923     0.81800
N646        N  0.41113904  0.84250951  0.18962430    -0.78800
C647        C  0.43143918  0.86631133  0.17675404     0.81900
N648        N  0.42561088  0.87245742  0.15086141    -0.80600
C649        C  0.16891113  0.85605093  0.36130715     0.79400
N650        N  0.18747729  0.83053841  0.34849836    -0.78900
C651        C  0.18093207  0.82346399  0.32274518     0.81800
N652        N  0.15634950  0.84263585  0.30949181    -0.77200
C653        C  0.13649241  0.86688377  0.32233330     0.81900
N654        N  0.14308550  0.87366276  0.34804884    -0.80600
C655        C  0.43170966  0.61734125  0.14158477     0.79400
N656        N  0.40519573  0.63450693  0.15432948    -0.78900
C657        C  0.39502978  0.62451048  0.17877530     0.81800
N658        N  0.41135569  0.59701711  0.19066440    -0.78800
C659        C  0.43812686  0.57989514  0.17831312     0.81900
N660        N  0.44823317  0.59007278  0.15385322    -0.80600
N661        N  0.99133734  0.92962699  0.19967422    -0.06900
N662        N  0.98342904  0.90576072  0.18168749    -0.59100
N663        N  0.46784844  0.01015140  0.21825853    -0.06600
N664        N  0.44428975  0.53540760  0.21379796    -0.61200
N665        N  0.99194476  0.00986973  0.19955934    -0.06200
N666        N  0.98569306  0.53481679  0.18202826    -0.59000
N667        N  0.46789231  0.92938778  0.21889536    -0.05900
N668        N  0.44381768  0.90490722  0.21456476    -0.61500
C669        C  0.45414672  0.89023248  0.19165857     0.95200
C670        C  0.45602732  0.55059644  0.19141177     0.95000
N671        N  0.99061044  0.00964592  0.29938177    -0.07100
N672        N  0.98180360  0.53224366  0.31782566    -0.59600
N673        N  0.46740957  0.92955875  0.28054993    -0.05200
N674        N  0.44411137  0.90423358  0.28470702    -0.60900
N675        N  0.99155843  0.92946314  0.29888012    -0.07200
N676        N  0.98533419  0.90438984  0.31617355    -0.59900
N677        N  0.46737204  0.01038422  0.28042069    -0.04900
N678        N  0.44226750  0.53386397  0.28521884    -0.61000
Mn679      Mn  0.46672609  0.96995291  0.24950079     1.18400
C680        C  0.45204539  0.54768676  0.30861525     0.97300
C681        C  0.45592401  0.88883489  0.30703131     0.98000
N682        N  0.07656895  0.00958253  0.19905193    -0.07200
N683        N  0.08621711  0.53200459  0.18024033    -0.63500
N684        N  0.09962607  0.92923571  0.21836172    -0.06000
N685        N  0.12261568  0.90356730  0.21437465    -0.64200
N686        N  0.07520590  0.92924197  0.19981841    -0.06700
N687        N  0.08110975  0.90377379  0.18273883    -0.63700
N688        N  0.10009092  0.51044782  0.21831918    -0.05600
N689        N  0.12534174  0.53351490  0.21339069    -0.64400
Mn690      Mn  0.03371359  0.96965189  0.19876422     1.10700
C691        C  0.11625836  0.54699948  0.18976211     0.98500
C692        C  0.11066954  0.88796453  0.19212889     0.98600
N693        N  0.07572713  0.92982367  0.29909805    -0.06700
N694        N  0.08394339  0.90612882  0.31712878    -0.62100
N695        N  0.09912424  0.51056851  0.28041096    -0.06000
N696        N  0.12216491  0.53610056  0.28457990    -0.58800
N697        N  0.07486507  0.01022144  0.29911794    -0.07300
N698        N  0.08116039  0.53538260  0.31641591    -0.61600
N699        N  0.09937148  0.92952864  0.28008773    -0.06300
N700        N  0.12365608  0.90525763  0.28446777    -0.58800
Mn701      Mn  0.03322906  0.96978314  0.29990707     1.20200
Mn702      Mn  0.10033604  0.96994433  0.24935247     1.10100
Cl703      Cl  0.03339208  0.96995319  0.24933400    -0.86800
C704        C  0.11353350  0.89065829  0.30743528     0.95600
C705        C  0.11060465  0.55132170  0.30701765     0.95300
C706        C  0.13349871  0.82029898  0.14265188     0.79400
N707        N  0.11735588  0.84766303  0.15498113    -0.78900
C708        C  0.12843791  0.85848011  0.17908089     0.81800
N709        N  0.15608634  0.84198822  0.19094796    -0.78800
C710        C  0.17234056  0.81454883  0.17888511     0.81900
N711        N  0.16102535  0.80381535  0.15482935    -0.80600
C712        C  0.39495881  0.58097275  0.36205274     0.79400
N713        N  0.37732767  0.60723712  0.34932371    -0.78900
C714        C  0.38517519  0.61527990  0.32397650     0.81800
N715        N  0.41008635  0.59627100  0.31102003    -0.78800
C716        C  0.42888190  0.57104783  0.32373857     0.81900
N717        N  0.42095917  0.56317002  0.34910617    -0.80600
C718        C  0.13923575  0.61520467  0.35789501     0.79400
N719        N  0.12111367  0.58909731  0.34540437    -0.78900
C720        C  0.12921852  0.58021350  0.32021244     0.81800
N721        N  0.15544650  0.59759023  0.30738568    -0.78800
C722        C  0.17308111  0.62412013  0.31950354     0.81900
N723        N  0.16494423  0.63273800  0.34460832    -0.80600
C724        C  0.17696337  0.57716286  0.13729231     0.79400
N725        N  0.15004776  0.56011710  0.14982913    -0.78900
C726        C  0.14044085  0.56947110  0.17462861     0.81800
N727        N  0.15854336  0.59536019  0.18720404    -0.78800
C728        C  0.18436478  0.61356641  0.17458492     0.81900
N729        N  0.19385091  0.60405583  0.14983725    -0.80600
N730        N  0.32441647  0.76101734  0.29943357    -0.06900
N731        N  0.34959764  0.76746261  0.31692142    -0.59100
N732        N  0.24303250  0.78538019  0.28019425    -0.06600
N733        N  0.21922398  0.80999868  0.28481264    -0.61200
N734        N  0.24335784  0.76208335  0.29930784    -0.06200
N735        N  0.22013988  0.77088620  0.31766240    -0.59000
N736        N  0.32447268  0.78512175  0.28086438    -0.05900
N737        N  0.34979776  0.80836524  0.28524702    -0.61500
C738        C  0.36522614  0.79698699  0.30771516     0.95200
C739        C  0.20495350  0.80049717  0.30805700     0.95000
N740        N  0.24316805  0.76093484  0.19973759    -0.07100
N741        N  0.21775465  0.76722637  0.18243352    -0.59600
N742        N  0.32453751  0.78542699  0.21884889    -0.05200
N743        N  0.34834721  0.81002577  0.21423637    -0.60900
N744        N  0.32413713  0.76217579  0.19967335    -0.07200
N745        N  0.34731042  0.77094559  0.18131011    -0.59900
N746        N  0.24313171  0.78503774  0.21833806    -0.04900
N747        N  0.21755658  0.80809449  0.21418455    -0.61000
Mn748      Mn  0.28381973  0.78602710  0.24955360     1.18400
C749        C  0.20198410  0.79660235  0.19180762     0.97300
C750        C  0.36250534  0.80052209  0.19094017     0.98000
N751        N  0.24271732  0.67857852  0.29847752    -0.07200
N752        N  0.21724349  0.67217282  0.31557321    -0.63500
N753        N  0.32441278  0.65418618  0.28057284    -0.06000
N754        N  0.34800046  0.62943836  0.28547923    -0.64200
N755        N  0.32376075  0.67736370  0.29978955    -0.06700
N756        N  0.34649904  0.66831538  0.31849622    -0.63700
N757        N  0.24283930  0.65455495  0.27983352    -0.05600
N758        N  0.21724909  0.63144869  0.28371407    -0.64400
Mn759      Mn  0.28356965  0.71974209  0.30004329     1.10700
C760        C  0.20153963  0.64287171  0.30600015     0.98500
C761        C  0.36179909  0.63869867  0.30899548     0.98600
N762        N  0.32521056  0.67879242  0.20004809    -0.06700
N763        N  0.35048520  0.67241174  0.18275260    -0.62100
N764        N  0.24385352  0.65390446  0.21816741    -0.06000
N765        N  0.22074330  0.62875193  0.21320802    -0.58800
N766        N  0.24423525  0.67705213  0.19895527    -0.07300
N767        N  0.22182560  0.66750160  0.18015050    -0.61600
N768        N  0.32529587  0.65474719  0.21865305    -0.06300
N769        N  0.35076365  0.63159451  0.21450166    -0.58800
Mn770      Mn  0.28414234  0.71976786  0.19881229     1.20200
Mn771      Mn  0.28413545  0.65360952  0.24932357     1.10100
Cl772      Cl  0.28392925  0.71979902  0.24942964    -0.86800
C773        C  0.36622348  0.64302869  0.19212665     0.95600
C774        C  0.20694388  0.63767206  0.18964759     0.95300
N775        N  0.29054108  0.95851144  0.53784328    -0.37400
N776        N  0.25036745  0.92089666  0.49822750    -0.58000
N777        N  0.28413690  0.96466787  0.45776188    -0.37400
N778        N  0.32828366  0.99845383  0.49754412    -0.58000
C779        C  0.27623276  0.93261049  0.55257976     0.26200
C780        C  0.31644738  0.97361050  0.55233891     0.26200
C781        C  0.26765157  0.94014912  0.44277676     0.26200
C782        C  0.30848492  0.98098062  0.44244403     0.26200
C783        C  0.23309486  0.90937419  0.51983077     0.34800
C784        C  0.22993034  0.91229064  0.47738407     0.34800
C785        C  0.33798787  0.51669501  0.51944125     0.34800
C786        C  0.33636227  0.51893068  0.47692100     0.34800
C787        C  0.29329638  0.93123696  0.57677655    -0.22700
C788        C  0.31862941  0.95717870  0.57664726    -0.22700
C789        C  0.28136943  0.94124113  0.41747699    -0.22700
C790        C  0.30712614  0.96693992  0.41728174    -0.22700
C791        C  0.20176537  0.89284177  0.51270668    -0.23800
C792        C  0.19976959  0.89462961  0.48573167    -0.23800
C793        C  0.35476255  0.54764100  0.51227057    -0.23800
C794        C  0.35376821  0.54904553  0.48528290    -0.23800
C795        C  0.24617064  0.91233342  0.54575836    -0.19100
C796        C  0.33403080  0.50475695  0.54554412    -0.19100
C797        C  0.33022532  0.50973713  0.45037149    -0.19100
C798        C  0.23927612  0.91814857  0.45087628    -0.19100
H799        H  0.28753451  0.91389946  0.59309126     0.13800
H800        H  0.33615035  0.96368066  0.59284186     0.13800
H801        H  0.27350299  0.92531492  0.40080439     0.13800
H802        H  0.32291149  0.97456865  0.40046139     0.13800
H803        H  0.18255013  0.88058708  0.52556808     0.12100
H804        H  0.17865760  0.88398008  0.47364084     0.12100
H805        H  0.36641051  0.56718775  0.52514176     0.12100
H806        H  0.36441327  0.56994966  0.47321991     0.12100
H807        H  0.28129906  0.96736815  0.51984185     0.25300
H808        H  0.27763730  0.97125118  0.47693055     0.25300
N809        N  0.03614799  0.71380225  0.03797620    -0.37400
N810        N  0.50140461  0.67318888  0.99760998    -0.58000
N811        N  0.03943871  0.71444063  0.95774962    -0.37400
N812        N  0.07764087  0.75183481  0.99879765    -0.58000
C813        C  0.02125123  0.68789877  0.05239127     0.26200
C814        C  0.06128320  0.72899378  0.05316545     0.26200
C815        C  0.02405643  0.68963786  0.94241629     0.26200
C816        C  0.06489139  0.73046732  0.94327012     0.26200
C817        C  0.48254122  0.66192361  0.01852927     0.34800
C818        C  0.48398646  0.66188346  0.97600852     0.34800
C819        C  0.08713771  0.77020008  0.02039216     0.34800
C820        C  0.08954061  0.77017762  0.97791017     0.34800
C821        C  0.03696660  0.68677163  0.07707699    -0.22700
C822        C  0.06225812  0.71267940  0.07755529    -0.22700
C823        C  0.03957297  0.69023067  0.91769905    -0.22700
C824        C  0.06530549  0.71591738  0.91823881    -0.22700
C825        C  0.45332542  0.64275880  0.01027640    -0.23800
C826        C  0.45425111  0.64267813  0.98325694    -0.23800
C827        C  0.10562691  0.80018577  0.01329928    -0.23800
C828        C  0.10728584  0.80011436  0.98629981    -0.23800
C829        C  0.49250989  0.66732639  0.04493654    -0.19100
C830        C  0.08161506  0.75878246  0.04640147    -0.19100
C831        C  0.08646329  0.75905761  0.95151908    -0.19100
C832        C  0.49534822  0.66731445  0.94987279    -0.19100
H833        H  0.03061018  0.66937953  0.09322756     0.13800
H834        H  0.07911416  0.71907245  0.09415122     0.13800
H835        H  0.03290149  0.67399474  0.90091071     0.13800
H836        H  0.08213968  0.72322832  0.90191398     0.13800
H837        H  0.43367520  0.62991309  0.02243813     0.12100
H838        H  0.43531338  0.62979420  0.97043034     0.12100
H839        H  0.11726120  0.81966715  0.02623142     0.12100
H840        H  0.12037133  0.81965101  0.97427528     0.12100
H841        H  0.02785504  0.72240575  0.01960867     0.25300
H842        H  0.03154348  0.72128206  0.97654604     0.25300
N843        N  0.04307251  0.72003734  0.45984077    -0.37400
N844        N  0.07497209  0.67706020  0.50125739    -0.58000
N845        N  0.03436718  0.71658696  0.53975760    -0.37400
N846        N  0.99857734  0.75576480  0.49820966    -0.58000
C847        C  0.05938346  0.69490145  0.44546167     0.26200
C848        C  0.01939984  0.73617085  0.44384377     0.26200
C849        C  0.04730994  0.69007900  0.55471947     0.26200
C850        C  0.00694410  0.73112190  0.55303075     0.26200
C851        C  0.09579747  0.66747698  0.48091265     0.34800
C852        C  0.09167627  0.66618767  0.52331414     0.34800
C853        C  0.49063887  0.77543266  0.47707603     0.34800
C854        C  0.48635643  0.77374788  0.51944643     0.34800
C855        C  0.04630483  0.69547387  0.41990961    -0.22700
C856        C  0.02110298  0.72148140  0.41889985    -0.22700
C857        C  0.02787753  0.68774795  0.57778277    -0.22700
C858        C  0.00242438  0.71368050  0.57673245    -0.22700
C859        C  0.12565439  0.64997261  0.48996593    -0.23800
C860        C  0.12317532  0.64935402  0.51692730    -0.23800
C861        C  0.47275439  0.80566948  0.48448643    -0.23800
C862        C  0.47013870  0.80466835  0.51144188    -0.23800
C863        C  0.08716704  0.67277705  0.45424778    -0.19100
C864        C  0.49746534  0.76522524  0.45093966    -0.19100
C865        C  0.48793396  0.76140365  0.54556016    -0.19100
C866        C  0.07777979  0.66966977  0.54895295    -0.19100
H867        H  0.05423956  0.67904908  0.40355496     0.13800
H868        H  0.00592007  0.72884919  0.40165966     0.13800
H869        H  0.03197450  0.66957238  0.59387527     0.13800
H870        H  0.98312465  0.71942491  0.59188248     0.13800
H871        H  0.14694644  0.63886789  0.47835692     0.12100
H872        H  0.14224692  0.63763397  0.53024498     0.12100
H873        H  0.46254338  0.82615913  0.47178817     0.12100
H874        H  0.45740567  0.82421138  0.52369342     0.12100
H875        H  0.04916824  0.72704508  0.47901276     0.25300
H876        H  0.04537967  0.72600294  0.52247315     0.25300
N877        N  0.28040403  0.95637718  0.96027263    -0.37400
N878        N  0.32145745  0.91826351  0.99925410    -0.58000
N879        N  0.28908454  0.96229496  0.04005382    -0.37400
N880        N  0.24410573  0.99653018  0.00099270    -0.58000
C881        C  0.29433214  0.93045427  0.94534255     0.26200
C882        C  0.25398512  0.97131107  0.94620086     0.26200
C883        C  0.30581580  0.93771266  0.05477721     0.26200
C884        C  0.26525354  0.97870477  0.05575535     0.26200
C885        C  0.33814276  0.90679553  0.97739639     0.34800
C886        C  0.34228144  0.90921325  0.01976610     0.34800
C887        C  0.23137822  0.51379055  0.97980762     0.34800
C888        C  0.23550421  0.51614928  0.02224778     0.34800
C889        C  0.27652965  0.92885273  0.92145979    -0.22700
C890        C  0.25108109  0.95466268  0.92198557    -0.22700
C891        C  0.29276219  0.93882080  0.08026550    -0.22700
C892        C  0.26720903  0.96465094  0.08087779    -0.22700
C893        C  0.36940254  0.88975265  0.98402114    -0.23800
C894        C  0.37202335  0.89124525  0.01096772    -0.23800
C895        C  0.21517498  0.54483235  0.98743244    -0.23800
C896        C  0.21773741  0.54631335  0.01439483    -0.23800
C897        C  0.32469554  0.91038779  0.95166091    -0.19100
C898        C  0.23366119  0.50142280  0.95371483    -0.19100
C899        C  0.24282650  0.50678364  0.04859996    -0.19100
C900        C  0.33401552  0.91572167  0.04636638    -0.19100
H901        H  0.28184202  0.91142177  0.90509965     0.13800
H902        H  0.23301906  0.96093826  0.90607955     0.13800
H903        H  0.30097171  0.92282081  0.09679404     0.13800
H904        H  0.25195729  0.97235455  0.09795357     0.13800
H905        H  0.38820504  0.87742942  0.97084446     0.12100
H906        H  0.39335625  0.88038259  0.02272509     0.12100
H907        H  0.20267814  0.56423925  0.97490374     0.12100
H908        H  0.20772719  0.56721131  0.02678647     0.12100
H909        H  0.29033452  0.96537503  0.97806603     0.25300
H910        H  0.29517094  0.96892430  0.02081209     0.25300
C911        C  0.38551929  0.86077298  0.85451895     0.79400
N912        N  0.36950013  0.83308686  0.84239222    -0.78900
C913        C  0.38042427  0.82225112  0.81827815     0.81800
N914        N  0.40751806  0.83916656  0.80616251    -0.78800
C915        C  0.42349263  0.86695452  0.81800100     0.81900
N916        N  0.41259268  0.87750136  0.84213378    -0.80600
C917        C  0.42894587  0.60023199  0.86039949     0.79400
N918        N  0.44703887  0.57450667  0.84752294    -0.78900
C919        C  0.43909308  0.56637008  0.82219279     0.81800
N920        N  0.41365181  0.58483860  0.80930847    -0.78800
C921        C  0.39437726  0.60953023  0.82217113     0.81900
N922        N  0.40232527  0.61738903  0.84754946    -0.80600
C923        C  0.18548960  0.56225073  0.85663585     0.79400
N924        N  0.20236818  0.58878346  0.84388432    -0.78900
C925        C  0.19322525  0.59759836  0.81892929     0.81800
N926        N  0.16689280  0.57976709  0.80652559    -0.78800
C927        C  0.15013085  0.55289458  0.81888876     0.81900
N928        N  0.15939696  0.54427094  0.84388115    -0.80600
C929        C  0.15099107  0.82379812  0.86095721     0.79400
N930        N  0.17633156  0.80485013  0.84810124    -0.78900
C931        C  0.18251031  0.81018267  0.82206128     0.81800
N932        N  0.16268570  0.83397719  0.80862777    -0.78800
C933        C  0.13855528  0.85407788  0.82143694     0.81900
N934        N  0.13261966  0.84863524  0.84737761    -0.80600
C935        C  0.14613041  0.60032692  0.63712585     0.79400
N936        N  0.17303038  0.61717555  0.64983719    -0.78900
C937        C  0.18291535  0.60742447  0.67442929     0.81800
N938        N  0.16507363  0.58122521  0.68673609    -0.78800
C939        C  0.13926027  0.56309167  0.67389252     0.81900
N940        N  0.12939955  0.57314582  0.64929237    -0.80600
C941        C  0.39327480  0.56508960  0.63964329     0.79400
N942        N  0.41982159  0.54787656  0.65233860    -0.78900
C943        C  0.43005684  0.55784225  0.67682261     0.81800
N944        N  0.41346465  0.58501149  0.68891876    -0.78800
C945        C  0.38640679  0.60190054  0.67664450     0.81900
N946        N  0.37640246  0.59190634  0.65211055    -0.80600
N947        N  0.32986693  0.74907224  0.69806280    -0.06900
N948        N  0.33827516  0.77185686  0.67944590    -0.59100
N949        N  0.35426005  0.66953541  0.71726798    -0.06600
N950        N  0.37849536  0.64524386  0.71271104    -0.61200
N951        N  0.32982136  0.66916457  0.69870289    -0.06200
N952        N  0.33707184  0.64483391  0.68100052    -0.59000
N953        N  0.35345652  0.75004741  0.71718788    -0.05900
N954        N  0.37793989  0.77390169  0.71227031    -0.61500
C955        C  0.36800723  0.78744950  0.68884187     0.95200
C956        C  0.36736160  0.63010571  0.69009962     0.95000
N957        N  0.33112576  0.66987695  0.79836077    -0.07100
N958        N  0.34043540  0.64715337  0.81682776    -0.59600
N959        N  0.35300072  0.75062678  0.77932169    -0.05200
N960        N  0.37544137  0.77677136  0.78326425    -0.60900
N961        N  0.32870372  0.75013860  0.79789479    -0.07200
N962        N  0.33418388  0.77578487  0.81492595    -0.59900
N963        N  0.35457077  0.66975648  0.77920766    -0.04900
N964        N  0.37974553  0.64650726  0.78390410    -0.61000
Mn965      Mn  0.35464447  0.71001633  0.74829749     1.18400
C966        C  0.37046833  0.63240170  0.80723529     0.97300
C967        C  0.36330970  0.79218579  0.80547749     0.98000
N968        N  0.24517129  0.66869643  0.69835377    -0.07200
N969        N  0.23635695  0.64566253  0.67994215    -0.63500
N970        N  0.22152691  0.74918207  0.71738562    -0.06000
N971        N  0.19865742  0.77499419  0.71353019    -0.64200
N972        N  0.24584357  0.74921074  0.69882736    -0.06700
N973        N  0.23998016  0.77489800  0.68191535    -0.63700
N974        N  0.22173950  0.66813152  0.71750174    -0.05600
N975        N  0.19710672  0.64428791  0.71286915    -0.64400
Mn976      Mn  0.28758865  0.70894782  0.69772626     1.10700
C977        C  0.20671747  0.63020273  0.68959077     0.98500
C978        C  0.21054643  0.79076103  0.69138982     0.98600
N979        N  0.24454390  0.74831352  0.79853923    -0.06700
N980        N  0.23559682  0.77120477  0.81698703    -0.62100
N981        N  0.22232973  0.66769085  0.77925975    -0.06000
N982        N  0.19946210  0.64196004  0.78329346    -0.58800
N983        N  0.24669975  0.66801409  0.79786910    -0.07300
N984        N  0.24073997  0.64274419  0.81508797    -0.61600
N985        N  0.22099319  0.74858511  0.77938291    -0.06300
N986        N  0.19602184  0.77203372  0.78408640    -0.58800
Mn987      Mn  0.28779237  0.70905050  0.79895461     1.20200
Mn988      Mn  0.22078973  0.70841592  0.74835651     1.10100
Cl989      Cl  0.28771964  0.70908024  0.74833183    -0.86800
C990        C  0.20555919  0.78609688  0.80743821     0.95600
C991        C  0.21132961  0.62666293  0.80564703     0.95300
C992        C  0.42208372  0.82610405  0.63559694     0.79400
N993        N  0.43901944  0.85216499  0.64898051    -0.78900
C994        C  0.43199671  0.85808953  0.67473502     0.81800
N995        N  0.40843515  0.83724494  0.68744346    -0.78800
C996        C  0.39018656  0.81214045  0.67413126     0.81900
N997        N  0.39742275  0.80624149  0.64831386    -0.80600
C998        C  0.18680459  0.85889770  0.64235575     0.79400
N999        N  0.20373468  0.83181416  0.65456388    -0.78900
C1000       C  0.19258025  0.82029400  0.67847977     0.81800
N1001       N  0.16434362  0.83588934  0.69025758    -0.78800
C1002       C  0.14744767  0.86299806  0.67825956     0.81900
N1003       N  0.15864875  0.87423518  0.65439477    -0.80600
N1004       N  0.49544938  0.91919123  0.79763023    -0.06900
N1005       N  0.46958526  0.91369863  0.81464272    -0.59100
N1006       N  0.07605470  0.89215501  0.77896447    -0.06600
N1007       N  0.09974388  0.86733586  0.78348706    -0.61200
N1008       N  0.07632802  0.91557412  0.79802134    -0.06200
N1009       N  0.09985879  0.90675414  0.81618882    -0.59000
N1010       N  0.49485718  0.89511207  0.77903011    -0.05900
N1011       N  0.46851833  0.87289109  0.78285612    -0.61500
C1012       C  0.45302353  0.88482489  0.80504717     0.95200
C1013       C  0.11460387  0.87696040  0.80658084     0.95000
N1014       N  0.07652289  0.91652644  0.69855765    -0.07100
N1015       N  0.10210801  0.91009167  0.68155547    -0.59600
N1016       N  0.49453589  0.89477058  0.71756577    -0.05200
N1017       N  0.46971070  0.87108930  0.71308684    -0.60900
N1018       N  0.49546140  0.91804102  0.69845438    -0.07200
N1019       N  0.47163948  0.91011120  0.68023235    -0.59900
N1020       N  0.07604837  0.89236732  0.71707323    -0.04900
N1021       N  0.10148469  0.86905707  0.71314187    -0.61000
Mn1022     Mn  0.03529029  0.89269403  0.74808923     1.18400
C1023       C  0.11745131  0.88053135  0.69095605     0.97300
C1024       C  0.45541484  0.88112541  0.68992837     0.98000
N1025       N  0.07972335  0.49893710  0.79763770    -0.07200
N1026       N  0.10510501  0.50509842  0.81502460    -0.63500
N1027       N  0.49904916  0.52594944  0.77914895    -0.06000
N1028       N  0.47632223  0.55148876  0.78396717    -0.64200
N1029       N  0.49885594  0.50274937  0.79832608    -0.06700
N1030       N  0.47639924  0.51251897  0.81692478    -0.63700
N1031       N  0.08025547  0.52281987  0.77892497    -0.05600
N1032       N  0.10613542  0.54551844  0.78301636    -0.64400
Mn1033     Mn  0.03745377  0.95901761  0.79872216     1.10700
C1034       C  0.12139938  0.53411057  0.80549876     0.98500
C1035       C  0.46218096  0.54263538  0.80739487     0.98600
N1036       N  0.49768294  0.50140679  0.69863408    -0.06700
N1037       N  0.47293537  0.50874370  0.68109103    -0.62100
N1038       N  0.07966471  0.52333218  0.71729024    -0.06000
N1039       N  0.10334433  0.54794836  0.71248927    -0.58800
N1040       N  0.07852097  0.50040074  0.69791777    -0.07300
N1041       N  0.10096705  0.50965342  0.67913275    -0.61600
N1042       N  0.49841410  0.52548431  0.71722667    -0.06300
N1043       N  0.47398776  0.54965634  0.71282101    -0.58800
Mn1044     Mn  0.03698808  0.95894268  0.69753729     1.20200
Mn1045     Mn  0.03925522  0.52499348  0.74811214     1.10100
Cl1046     Cl  0.03727740  0.95891767  0.74812003    -0.86800
C1047       C  0.45836583  0.53876321  0.69028717     0.95600
C1048       C  0.11669191  0.53899597  0.68884720     0.95300
C1049       C  0.24035610  0.54520543  0.91839719    -0.27100
C1050       C  0.21796889  0.52236062  0.93208111    -0.15200
C1051       C  0.18353509  0.51567371  0.92261607     0.35400
C1052       C  0.17278292  0.53074019  0.89864965    -0.26600
C1053       C  0.19605759  0.55187406  0.88379867    -0.15800
C1054       C  0.22986692  0.56026931  0.89444042     0.36500
N1055       N  0.25430082  0.58238789  0.88041506    -0.90100
H1056       H  0.26686538  0.54999451  0.92594218     0.17600
H1057       H  0.14656153  0.52477237  0.89107096     0.17600
N1058       N  0.16112756  0.99335402  0.93705138    -0.89100
H1059       H  0.27895547  0.58314650  0.88990154     0.35000
H1060       H  0.24433968  0.60801620  0.88120406     0.40100
H1061       H  0.17205311  0.96809066  0.93691758     0.39700
H1062       H  0.13649986  0.99148788  0.92761784     0.34600
C1063       C  0.36654520  0.91706456  0.91497572    -0.27100
C1064       C  0.34444037  0.89471515  0.92938890    -0.15200
C1065       C  0.33795436  0.86023641  0.92027845     0.35400
C1066       C  0.35240324  0.84967302  0.89616479    -0.26600
C1067       C  0.37316228  0.87264252  0.88085188    -0.15800
C1068       C  0.38082517  0.90667003  0.89074793     0.36500
N1069       N  0.40174396  0.93120167  0.87586290    -0.90100
H1070       H  0.37113538  0.94354744  0.92210190     0.17600
H1071       H  0.34669718  0.82335997  0.88917084     0.17600
N1072       N  0.31583176  0.83584011  0.93431251    -0.89100
H1073       H  0.40589824  0.95437994  0.88650404     0.35000
H1074       H  0.38695529  0.93822970  0.85924654     0.40100
H1075       H  0.30643312  0.84656535  0.95186225     0.39700
H1076       H  0.33166156  0.81436976  0.93955773     0.34600
C1077       C  0.09716239  0.61472981  0.57209079    -0.27100
C1078       C  0.09627695  0.65159135  0.57106296    -0.15200
C1079       C  0.11309417  0.67125430  0.59098882     0.35400
C1080       C  0.12989305  0.65367982  0.61183512    -0.26600
C1081       C  0.13028091  0.61673794  0.61332186    -0.15800
C1082       C  0.11382289  0.59712913  0.59296903     0.36500
N1083       N  0.11421626  0.55948949  0.59259129    -0.90100
H1084       H  0.08452494  0.59956778  0.55663163     0.17600
H1085       H  0.14203248  0.66907619  0.62737516     0.17600
N1086       N  0.11269001  0.70903676  0.59005671    -0.89100
H1087       H  0.09980596  0.55011000  0.60863743     0.35000
H1088       H  0.14053148  0.55096942  0.59417229     0.40100
H1089       H  0.12701379  0.71677136  0.57344972     0.39700
H1090       H  0.12587255  0.71962383  0.60636120     0.34600
C1091       C  0.43311090  0.77836867  0.57020969    -0.27100
C1092       C  0.46984557  0.78179021  0.56653539    -0.15200
C1093       C  0.48977828  0.80323911  0.58361190     0.35400
C1094       C  0.47287034  0.81956344  0.60489729    -0.26600
C1095       C  0.43650224  0.81432111  0.60985833    -0.15800
C1096       C  0.41614881  0.79448137  0.59175769     0.36500
N1097       N  0.37857674  0.79034336  0.59552749    -0.90100
H1098       H  0.41792886  0.76225548  0.55667123     0.17600
H1099       H  0.48878769  0.83481389  0.61851951     0.17600
N1100       N  0.52725380  0.80793977  0.57944391    -0.89100
H1101       H  0.36762353  0.77491696  0.58053664     0.35000
H1102       H  0.36699520  0.81522864  0.59388593     0.40100
H1103       H  0.53972500  0.78381349  0.58279799     0.39700
H1104       H  0.53781334  0.82545137  0.59326143     0.34600
C1105       C  0.15506502  0.78346544  0.89976734    -0.27100
C1106       C  0.13843582  0.81234473  0.88751481    -0.15200
C1107       C  0.10718307  0.82634904  0.89913297     0.35400
C1108       C  0.09153017  0.80885966  0.92048102    -0.26600
C1109       C  0.10677428  0.77853747  0.93115950    -0.15800
C1110       C  0.13976030  0.76651765  0.92145045     0.36500
N1111       N  0.15803170  0.73686273  0.93263604    -0.90100
H1112       H  0.17949571  0.77286165  0.89182943     0.17600
H1113       H  0.06672292  0.81844326  0.92853556     0.17600
N1114       N  0.09061803  0.85751487  0.88884794    -0.89100
H1115       H  0.15827367  0.71688572  0.91850525     0.35000
H1116       H  0.14485036  0.72694449  0.94906543     0.40100
H1117       H  0.10801174  0.87846907  0.89220908     0.39700
H1118       H  0.06730960  0.86336794  0.89909271     0.34600
C1119       C  0.43107941  0.64785403  0.89414352    -0.27100
C1120       C  0.44256585  0.61436858  0.88589958    -0.15200
C1121       C  0.46962621  0.59726002  0.90053343     0.35400
C1122       C  0.48595238  0.61497197  0.92161483    -0.26600
C1123       C  0.47564563  0.64906373  0.92861255    -0.15800
C1124       C  0.44730981  0.66543956  0.91513625     0.36500
N1125       N  0.43447967  0.69988503  0.92197188    -0.90100
H1126       H  0.41014724  0.66138719  0.88358067     0.17600
H1127       H  0.50728832  0.60241055  0.93243679     0.17600
N1128       N  0.48088746  0.56228863  0.89382090    -0.89100
H1129       H  0.43965406  0.71655472  0.90609500     0.35000
H1130       H  0.44778648  0.71037802  0.93819409     0.40100
H1131       H  0.45946930  0.54544252  0.89726199     0.39700
H1132       H  0.50146711  0.55399310  0.90618992     0.34600
C1133       C  0.34657350  0.56304714  0.60504346    -0.27100
C1134       C  0.38073670  0.55306960  0.61340783    -0.15200
C1135       C  0.40115549  0.53046898  0.59721146     0.35400
C1136       C  0.38585448  0.51644947  0.57426975    -0.26600
C1137       C  0.35103947  0.52496518  0.56700517    -0.15800
C1138       C  0.33149138  0.54933102  0.58211955     0.36500
N1139       N  0.29614046  0.56026245  0.57511848    -0.90100
H1140       H  0.33069792  0.58077175  0.61685420     0.17600
H1141       H  0.40065799  0.49787483  0.56240587     0.17600
N1142       N  0.43703458  0.52140914  0.60416145    -0.89100
H1143       H  0.27884142  0.55059845  0.58945149     0.35000
H1144       H  0.28799008  0.54975165  0.55713236     0.40100
H1145       H  0.45217614  0.54440261  0.60316149     0.39700
H1146       H  0.44784748  0.50399447  0.59042010     0.34600
C1147       C  0.20550851  0.91778570  0.58334524    -0.27100
C1148       C  0.22648534  0.89572310  0.56775077    -0.15200
C1149       C  0.23275767  0.86072576  0.57587503     0.35400
C1150       C  0.21885270  0.84920473  0.59995553    -0.26600
C1151       C  0.19913987  0.87179926  0.61629758    -0.15800
C1152       C  0.19220961  0.90655518  0.60766993     0.36500
N1153       N  0.17326736  0.93098935  0.62406250    -0.90100
H1154       H  0.20133412  0.94473912  0.57715471     0.17600
H1155       H  0.22416393  0.82246101  0.60613905     0.17600
N1156       N  0.25427321  0.83674628  0.56092130    -0.89100
H1157       H  0.16995394  0.95511259  0.61451529     0.35000
H1158       H  0.18906386  0.93596511  0.64059439     0.40100
H1159       H  0.26344137  0.84817901  0.54357097     0.39700
H1160       H  0.23808824  0.81570715  0.55529578     0.34600
C1161       C  0.22869430  0.56736982  0.10744911    -0.27100
C1162       C  0.19232530  0.56233289  0.11264138    -0.15200
C1163       C  0.17241009  0.54078606  0.09545174     0.35400
C1164       C  0.18929733  0.52363462  0.07442216    -0.26600
C1165       C  0.22582976  0.52766284  0.06997720    -0.15800
C1166       C  0.24563756  0.55045518  0.08641688     0.36500
N1167       N  0.28282312  0.55716785  0.08241171    -0.90100
H1168       H  0.24457230  0.58385219  0.12027836     0.17600
H1169       H  0.17388462  0.50656639  0.06169667     0.17600
N1170       N  0.13501215  0.53626854  0.09917183    -0.89100
H1171       H  0.29665205  0.54612420  0.09823402     0.35000
H1172       H  0.29233368  0.54527378  0.06532727     0.40100
H1173       H  0.12998244  0.50944344  0.10159979     0.39700
H1174       H  0.12205929  0.54456891  0.08205204     0.34600
C1175       C  0.14505189  0.65748386  0.39514390    -0.27100
C1176       C  0.13038161  0.62605277  0.38525301    -0.15200
C1177       C  0.10655994  0.60696233  0.40127778     0.35400
C1178       C  0.09551075  0.62117369  0.42537081    -0.26600
C1179       C  0.10770459  0.65410711  0.43376531    -0.15800
C1180       C  0.13395122  0.67176699  0.41908023     0.36500
N1181       N  0.14891663  0.70476578  0.42735325    -0.90100
H1182       H  0.16421025  0.67218450  0.38372057     0.17600
H1183       H  0.07546805  0.60754294  0.43673410     0.17600
N1184       N  0.09267385  0.57369898  0.39299635    -0.89100
H1185       H  0.14041193  0.72401981  0.41409506     0.35000
H1186       H  0.13991589  0.71217281  0.44595307     0.40100
H1187       H  0.06499699  0.57565074  0.39217396     0.39700
H1188       H  0.09923029  0.55501789  0.40727954     0.34600
C1189       C  0.34415521  0.57120149  0.39249892    -0.27100
C1190       C  0.38053680  0.56673171  0.38714446    -0.15200
C1191       C  0.40092150  0.54517124  0.40408375     0.35400
C1192       C  0.38445042  0.52772253  0.42519227    -0.26600
C1193       C  0.34779633  0.53091943  0.42946626    -0.15800
C1194       C  0.32769977  0.55320683  0.41320198     0.36500
N1195       N  0.29082284  0.05799877  0.41810854    -0.90100
H1196       H  0.32778825  0.58729373  0.37974890     0.17600
H1197       H  0.40011444  0.51076330  0.43781060     0.17600
N1198       N  0.43819665  0.54051891  0.39977360    -0.89100
H1199       H  0.27726107  0.54893314  0.40007380     0.35000
H1200       H  0.28600291  0.08464586  0.42162429     0.40100
H1201       H  0.44300971  0.51369571  0.39704474     0.39700
H1202       H  0.45166761  0.54850911  0.41676188     0.34600
C1203       C  0.14352494  0.78592366  0.10152743    -0.27100
C1204       C  0.12108951  0.80786872  0.11641888    -0.15200
C1205       C  0.08701249  0.81632903  0.10631805     0.35400
C1206       C  0.07607687  0.80184699  0.08225195    -0.26600
C1207       C  0.09788322  0.77865904  0.06832008    -0.15800
C1208       C  0.13232741  0.77106478  0.07772270     0.36500
N1209       N  0.15590932  0.74721897  0.06442070    -0.90100
H1210       H  0.16982254  0.77941345  0.10870713     0.17600
H1211       H  0.04953242  0.80710534  0.07494785     0.17600
N1212       N  0.06291093  0.83822807  0.12087436    -0.89100
H1213       H  0.17826251  0.76154598  0.05867329     0.35000
H1214       H  0.14465508  0.73718199  0.04721339     0.40100
H1215       H  0.05528277  0.82424886  0.13763778     0.39700
H1216       H  0.03967047  0.84281243  0.11011499     0.34600
C1217       C  0.44694751  0.67179933  0.07962590    -0.27100
C1218       C  0.47162657  0.65093020  0.06630539    -0.15200
C1219       C  0.48073584  0.61768083  0.07628181     0.35400
C1220       C  0.46643529  0.60675312  0.10044503    -0.26600
C1221       C  0.44318747  0.62851385  0.11482519    -0.15800
C1222       C  0.43264826  0.66103901  0.10371026     0.36500
N1223       N  0.40870037  0.68408828  0.11716820    -0.90100
H1224       H  0.44021294  0.69753863  0.07195075     0.17600
H1225       H  0.47434205  0.58151239  0.10836057     0.17600
N1226       N  0.00571475  0.59572037  0.06219613    -0.89100
H1227       H  0.38691436  0.68874118  0.10486385     0.35000
H1228       H  0.42162735  0.70803660  0.12038165     0.40100
H1229       H  0.99453064  0.58875419  0.04408921     0.39700
H1230       H  0.01022958  0.57228772  0.07240511     0.34600
C1231       C  0.20908018  0.85087330  0.40040069    -0.27100
C1232       C  0.18192527  0.86938760  0.38723328    -0.15200
C1233       C  0.17143672  0.90261913  0.39727765     0.35400
C1234       C  0.18989742  0.91750801  0.41849478    -0.26600
C1235       C  0.21834428  0.89989347  0.43023993    -0.15800
C1236       C  0.22732571  0.86580648  0.42183670     0.36500
N1237       N  0.25591776  0.84720765  0.43441493    -0.90100
H1238       H  0.21712369  0.82520986  0.39336429     0.17600
H1239       H  0.18258162  0.94346912  0.42541730     0.17600
N1240       N  0.14298923  0.92214822  0.38555758    -0.89100
H1241       H  0.25969004  0.82267643  0.42556922     0.35000
H1242       H  0.24833826  0.84230359  0.45383903     0.40100
H1243       H  0.15303897  0.94629750  0.37918449     0.39700
H1244       H  0.12396195  0.92706438  0.40004618     0.34600
C1245       C  0.39552580  0.90265700  0.10458968    -0.27100
C1246       C  0.38830597  0.86749712  0.11134355    -0.15200
C1247       C  0.36664056  0.84722733  0.09445669     0.35400
C1248       C  0.35071031  0.86302187  0.07245010    -0.26600
C1249       C  0.35606190  0.89873726  0.06695949    -0.15800
C1250       C  0.37973879  0.91849660  0.08269666     0.36500
N1251       N  0.38791004  0.95473797  0.07737528    -0.90100
H1252       H  0.41232384  0.91873123  0.11705895     0.17600
H1253       H  0.33294652  0.84769739  0.06016906     0.17600
N1254       N  0.36027954  0.81080452  0.09974276    -0.89100
H1255       H  0.37705595  0.96985473  0.09254636     0.35000
H1256       H  0.37649481  0.96340799  0.05982167     0.40100
H1257       H  0.36876249  0.79628349  0.08345759     0.39700
H1258       H  0.33289571  0.80716484  0.10171327     0.34600
C1259       C  0.48217820  0.82091140  0.39028845    -0.27100
C1260       C  0.44794402  0.80994413  0.38265960    -0.15200
C1261       C  0.42866722  0.78763863  0.39964983     0.35400
C1262       C  0.44475785  0.77494472  0.42266966    -0.26600
C1263       C  0.47959087  0.78443010  0.42929359    -0.15800
C1264       C  0.49814138  0.80861323  0.41337302     0.36500
N1265       N  0.03300101  0.82087171  0.41967656    -0.90100
H1266       H  0.49727104  0.83861966  0.37793838     0.17600
H1267       H  0.43039319  0.75664388  0.43503615     0.17600
N1268       N  0.39283693  0.77774750  0.39374177    -0.89100
H1269       H  0.05045794  0.81155057  0.40531276     0.35000
H1270       H  0.04182052  0.81113236  0.43772914     0.40100
H1271       H  0.37674898  0.78588136  0.40934026     0.39700
H1272       H  0.39167284  0.75032458  0.39268914     0.34600
C1273       C  0.93383595  0.32163255  0.35645622     0.79400
N1274       N  0.90642651  0.30458889  0.34449623    -0.78900
C1275       C  0.89473354  0.31510974  0.32043124     0.81800
N1276       N  0.91057663  0.34263085  0.30820755    -0.78800
C1277       C  0.93820731  0.35938867  0.31983146     0.81900
N1278       N  0.94968543  0.34883112  0.34381472    -0.80600
C1279       C  0.89999592  0.35431621  0.13696020     0.79400
N1280       N  0.88078279  0.32950927  0.14992849    -0.78900
C1281       C  0.88667441  0.32323835  0.17586974     0.81800
N1282       N  0.91110372  0.34260535  0.18910775    -0.78800
C1283       C  0.93136012  0.36638588  0.17616522     0.81900
N1284       N  0.92548355  0.37241605  0.15025377    -0.80600
C1285       C  0.66880674  0.35578415  0.36125335     0.79400
N1286       N  0.68745907  0.33039198  0.34837769    -0.78900
C1287       C  0.68104078  0.32352183  0.32257406     0.81800
N1288       N  0.65649598  0.34276507  0.30934640    -0.77200
C1289       C  0.63656974  0.36689752  0.32224598     0.81900
N1290       N  0.64304673  0.37348955  0.34800062    -0.80600
C1291       C  0.93134612  0.11696420  0.14125600     0.79400
N1292       N  0.90487753  0.13415506  0.15403054    -0.78900
C1293       C  0.89478958  0.12422697  0.17850593     0.81800
N1294       N  0.91115078  0.09676136  0.19040376    -0.78800
C1295       C  0.93787339  0.07959073  0.17802631     0.81900
N1296       N  0.94790693  0.08970698  0.15352472    -0.80600
N1297       N  0.49136009  0.42969547  0.19969991    -0.06900
N1298       N  0.48348556  0.40583862  0.18169840    -0.59100
N1299       N  0.96767281  0.51001698  0.21796659    -0.06600
N1300       N  0.94416490  0.03524619  0.21361529    -0.61200
N1301       N  0.49197715  0.50993988  0.19966128    -0.06200
N1302       N  0.48591780  0.03479118  0.18226967    -0.59000
N1303       N  0.96793263  0.42927835  0.21843481    -0.05900
N1304       N  0.94384332  0.40484063  0.21403183    -0.61500
C1305       C  0.95408912  0.39034643  0.19104570     0.95200
C1306       C  0.95585724  0.05037464  0.19119001     0.95000
N1307       N  0.49057856  0.50957764  0.29951275    -0.07100
N1308       N  0.48216483  0.03264539  0.31811023    -0.59600
N1309       N  0.96741536  0.42926132  0.28010339    -0.05200
N1310       N  0.94417448  0.40388672  0.28424990    -0.60900
N1311       N  0.49159162  0.42942103  0.29888968    -0.07200
N1312       N  0.48536638  0.40431353  0.31615403    -0.59900
N1313       N  0.96711197  0.51004472  0.28009572    -0.04900
N1314       N  0.94236042  0.03399352  0.28501993    -0.61000
Mn1315     Mn  0.96663599  0.46971879  0.24911857     1.18400
C1316       C  0.95218113  0.04790952  0.30837301     0.97300
C1317       C  0.95599361  0.38855530  0.30659822     0.98000
N1318       N  0.57653402  0.50963267  0.19912490    -0.07200
N1319       N  0.58634148  0.03168341  0.18037743    -0.63500
N1320       N  0.59963255  0.42931846  0.21844242    -0.06000
N1321       N  0.62260080  0.40362132  0.21447760    -0.64200
N1322       N  0.57520371  0.42930216  0.19990480    -0.06700
N1323       N  0.58108325  0.40380030  0.18285049    -0.63700
N1324       N  0.60023681  0.01022841  0.21848528    -0.05600
N1325       N  0.62550303  0.03325550  0.21350320    -0.64400
Mn1326     Mn  0.53371804  0.46970862  0.19883281     1.10700
C1327       C  0.61640581  0.04668107  0.18986011     0.98500
C1328       C  0.61063322  0.38798473  0.19224917     0.98600
N1329       N  0.57578296  0.42987712  0.29913181    -0.06700
N1330       N  0.58401628  0.40614188  0.31712656    -0.62100
N1331       N  0.59936464  0.01058485  0.28061459    -0.06000
N1332       N  0.62243948  0.03610151  0.28475826    -0.58800
N1333       N  0.57482970  0.51029689  0.29921253    -0.07300
N1334       N  0.58146415  0.03546658  0.31661522    -0.61600
N1335       N  0.59942918  0.42964913  0.28012542    -0.06300
N1336       N  0.62373173  0.40538728  0.28446310    -0.58800
Mn1337     Mn  0.53324060  0.46978070  0.29997462     1.20200
Mn1338     Mn  0.60033146  0.47006359  0.24942537     1.10100
Cl1339     Cl  0.53339411  0.47000328  0.24940323    -0.86800
C1340       C  0.61361948  0.39072572  0.30740687     0.95600
C1341       C  0.61091409  0.05136210  0.30719869     0.95300
C1342       C  0.63373435  0.32070672  0.14254680     0.79400
N1343       N  0.61749427  0.34793803  0.15497034    -0.78900
C1344       C  0.62844593  0.35856198  0.17915174     0.81800
N1345       N  0.65606638  0.34200721  0.19100637    -0.78800
C1346       C  0.67239981  0.31468814  0.17884511     0.81900
N1347       N  0.66121288  0.30415294  0.15471552    -0.80600
C1348       C  0.89514028  0.08098115  0.36186402     0.79400
N1349       N  0.87736865  0.10720250  0.34918297    -0.78900
C1350       C  0.88513662  0.11530956  0.32382579     0.81800
N1351       N  0.91008120  0.09639833  0.31081849    -0.78800
C1352       C  0.92899896  0.07123401  0.32349883     0.81900
N1353       N  0.92116906  0.06331412  0.34886150    -0.80600
C1354       C  0.63963100  0.11531561  0.35803628     0.79400
N1355       N  0.62151452  0.08915716  0.34558712    -0.78900
C1356       C  0.62952868  0.08028039  0.32037124     0.81800
N1357       N  0.65564772  0.09771470  0.30748162    -0.78800
C1358       C  0.67325864  0.12429611  0.31954481     0.81900
N1359       N  0.66522305  0.13291708  0.34467306    -0.80600
C1360       C  0.67727305  0.07655940  0.13741744     0.79400
N1361       N  0.65032455  0.05956931  0.14995434    -0.78900
C1362       C  0.64059479  0.06909764  0.17468872     0.81800
N1363       N  0.65860605  0.09511149  0.18719819    -0.78800
C1364       C  0.68445295  0.11326738  0.17456065     0.81900
N1365       N  0.69406340  0.10357251  0.14988379    -0.80600
N1366       N  0.82444237  0.26101614  0.29917611    -0.06900
N1367       N  0.84962267  0.26742065  0.31666268    -0.59100
N1368       N  0.74313822  0.28549378  0.27997341    -0.06600
N1369       N  0.71935297  0.31013228  0.28461508    -0.61200
N1370       N  0.74343480  0.26217612  0.29907167    -0.06200
N1371       N  0.72022510  0.27096663  0.31743079    -0.59000
N1372       N  0.82455427  0.28508866  0.28058709    -0.05900
N1373       N  0.84992275  0.30827779  0.28494815    -0.61500
C1374       C  0.86530556  0.29688641  0.30742521     0.95200
C1375       C  0.70507614  0.30060628  0.30785654     0.95000
N1376       N  0.74320437  0.26097650  0.19954772    -0.07100
N1377       N  0.71774887  0.26730599  0.18228737    -0.59600
N1378       N  0.82462869  0.28542078  0.21855870    -0.05200
N1379       N  0.84841830  0.31002877  0.21389044    -0.60900
N1380       N  0.82417822  0.26215296  0.19939215    -0.07200
N1381       N  0.84729719  0.27092345  0.18098706    -0.59900
N1382       N  0.74323881  0.28507893  0.21814903    -0.04900
N1383       N  0.71767448  0.30815609  0.21405563    -0.61000
Mn1384     Mn  0.78392576  0.28605965  0.24930715     1.18400
C1385       C  0.70203301  0.29668901  0.19170733     0.97300
C1386       C  0.86251836  0.30051695  0.19057293     0.98000
N1387       N  0.74273770  0.17875089  0.29831492    -0.07200
N1388       N  0.71732346  0.17238195  0.31546170    -0.63500
N1389       N  0.82438816  0.15424137  0.28041450    -0.06000
N1390       N  0.84792517  0.12945887  0.28534692    -0.64200
N1391       N  0.82373991  0.17742362  0.29962615    -0.06700
N1392       N  0.84643168  0.16834825  0.31835800    -0.63700
N1393       N  0.74282539  0.15469288  0.27969922    -0.05600
N1394       N  0.71725742  0.13158787  0.28365059    -0.64400
Mn1395     Mn  0.78359547  0.21982947  0.29982805     1.10700
C1396       C  0.70161017  0.14306032  0.30594925     0.98500
C1397       C  0.86169300  0.13870073  0.30887623     0.98600
N1398       N  0.82516771  0.17872415  0.19984094    -0.06700
N1399       N  0.85037821  0.17224811  0.18251317    -0.62100
N1400       N  0.74382248  0.15392074  0.21805300    -0.06000
N1401       N  0.72074984  0.12871942  0.21314821    -0.58800
N1402       N  0.74419278  0.17699861  0.19879267    -0.07300
N1403       N  0.72181160  0.16732480  0.17999905    -0.61600
N1404       N  0.82525144  0.15471571  0.21847476    -0.06300
N1405       N  0.85065426  0.13149605  0.21430832    -0.58800
Mn1406     Mn  0.78413384  0.21974328  0.19859264     1.20200
Mn1407     Mn  0.78411154  0.15366481  0.24917475     1.10100
Cl1408     Cl  0.78395807  0.21983740  0.24921514    -0.86800
C1409       C  0.86607645  0.14284686  0.19189536     0.95600
C1410       C  0.70695211  0.13751509  0.18956716     0.95300
N1411       N  0.78999324  0.45851338  0.53775661    -0.37400
N1412       N  0.74983182  0.42096629  0.49813597    -0.58000
N1413       N  0.78357043  0.46473117  0.45770539    -0.37400
N1414       N  0.82770314  0.49850201  0.49749322    -0.58000
C1415       C  0.77580999  0.43248415  0.55243048     0.26200
C1416       C  0.81601780  0.47347055  0.55221436     0.26200
C1417       C  0.76710092  0.44022381  0.44269849     0.26200
C1418       C  0.80787089  0.48110606  0.44238811     0.26200
C1419       C  0.73262738  0.40931056  0.51972101     0.34800
C1420       C  0.72946706  0.41223237  0.47729216     0.34800
C1421       C  0.83944003  0.01598601  0.51897927     0.34800
C1422       C  0.83705165  0.01841026  0.47651437     0.34800
C1423       C  0.79305588  0.43089398  0.57654550    -0.22700
C1424       C  0.81839305  0.45682773  0.57643143    -0.22700
C1425       C  0.78076338  0.44140727  0.41738610    -0.22700
C1426       C  0.80647939  0.46713758  0.41720397    -0.22700
C1427       C  0.70141422  0.39257230  0.51259052    -0.23800
C1428       C  0.69942540  0.39435555  0.48562111    -0.23800
C1429       C  0.85513650  0.04746639  0.51179730    -0.23800
C1430       C  0.85370060  0.04897352  0.48481412    -0.23800
C1431       C  0.74573008  0.41224610  0.54562738    -0.19100
C1432       C  0.83632798  0.00361807  0.54500291    -0.19100
C1433       C  0.83094194  0.00902239  0.45002748    -0.19100
C1434       C  0.73881560  0.41811604  0.45079946    -0.19100
H1435       H  0.78743299  0.41339758  0.59279119     0.13800
H1436       H  0.83606117  0.46316860  0.59257330     0.13800
H1437       H  0.77289654  0.42551322  0.40069712     0.13800
H1438       H  0.82222752  0.47482208  0.40037841     0.13800
H1439       H  0.68230308  0.38013637  0.52543959     0.12100
H1440       H  0.67841539  0.38352842  0.47352143     0.12100
H1441       H  0.86642342  0.06723859  0.52465065     0.12100
H1442       H  0.86356863  0.07020724  0.47270863     0.12100
H1443       H  0.78060081  0.46753697  0.51984035     0.25300
H1444       H  0.77712116  0.47124408  0.47689238     0.25300
N1445       N  0.53668576  0.21413829  0.03799987    -0.37400
N1446       N  0.00143822  0.17300099  0.99739782    -0.58000
N1447       N  0.53957863  0.21440971  0.95773612    -0.37400
N1448       N  0.57778360  0.25218224  0.99866171    -0.58000
C1449       C  0.52178847  0.18836540  0.05253809     0.26200
C1450       C  0.56171186  0.22958031  0.05315329     0.26200
C1451       C  0.52432470  0.18942598  0.94249499     0.26200
C1452       C  0.56495430  0.23045859  0.94320282     0.26200
C1453       C  0.98238284  0.16191307  0.01827779     0.34800
C1454       C  0.98400549  0.16184417  0.97575966     0.34800
C1455       C  0.58742976  0.27061893  0.02018862     0.34800
C1456       C  0.58953533  0.27045782  0.97769820     0.34800
C1457       C  0.53737690  0.18758928  0.07727896    -0.22700
C1458       C  0.56259693  0.21356294  0.07765581    -0.22700
C1459       C  0.53985189  0.18992012  0.91778080    -0.22700
C1460       C  0.56545888  0.21573306  0.91822975    -0.22700
C1461       C  0.95301635  0.14302560  0.00996257    -0.23800
C1462       C  0.95405785  0.14292028  0.98294440    -0.23800
C1463       C  0.60586097  0.30058576  0.01297219    -0.23800
C1464       C  0.60731152  0.30043807  0.98596721    -0.23800
C1465       C  0.99230664  0.16722548  0.04470634    -0.19100
C1466       C  0.58205304  0.25931329  0.04624326    -0.19100
C1467       C  0.58639392  0.25919878  0.95134480    -0.19100
C1468       C  0.99554288  0.16714339  0.94965088    -0.19100
H1469       H  0.53099050  0.17037744  0.09353098     0.13800
H1470       H  0.57934428  0.22019133  0.09426039     0.13800
H1471       H  0.53328184  0.17352007  0.90106014     0.13800
H1472       H  0.58228344  0.22300227  0.90188876     0.13800
H1473       H  0.93318468  0.13038544  0.02208303     0.12100
H1474       H  0.93504684  0.13021671  0.97007653     0.12100
H1475       H  0.61759000  0.32010645  0.02582405     0.12100
H1476       H  0.62031746  0.31993352  0.97385767     0.12100
H1477       H  0.52846274  0.22246477  0.01954705     0.25300
H1478       H  0.53164157  0.22137031  0.97650657     0.25300
N1479       N  0.54312733  0.21995997  0.45989220    -0.37400
N1480       N  0.57520612  0.17731927  0.50137097    -0.58000
N1481       N  0.53428498  0.21667245  0.53978756    -0.37400
N1482       N  0.49834807  0.25557924  0.49816964    -0.58000
C1483       C  0.55952070  0.19480802  0.44556930     0.26200
C1484       C  0.51934214  0.23590706  0.44387767     0.26200
C1485       C  0.54719407  0.19012738  0.55472947     0.26200
C1486       C  0.50663972  0.23097994  0.55294850     0.26200
C1487       C  0.59610537  0.16774628  0.48106376     0.34800
C1488       C  0.59188502  0.16654534  0.52346401     0.34800
C1489       C  0.99077817  0.27528650  0.47662991     0.34800
C1490       C  0.98629434  0.27366219  0.51900379     0.34800
C1491       C  0.54634704  0.19515925  0.42004262    -0.22700
C1492       C  0.52101753  0.22105445  0.41898752    -0.22700
C1493       C  0.52750178  0.18752869  0.57765517    -0.22700
C1494       C  0.50192211  0.21334234  0.57654472    -0.22700
C1495       C  0.62599882  0.15036176  0.49017970    -0.23800
C1496       C  0.62345930  0.14980475  0.51714064    -0.23800
C1497       C  0.97281610  0.30550953  0.48397236    -0.23800
C1498       C  0.97006998  0.30454539  0.51092500    -0.23800
C1499       C  0.58746432  0.17288464  0.45438115    -0.19100
C1500       C  0.99774634  0.26506129  0.45050939    -0.19100
C1501       C  0.98781454  0.26138303  0.54514806    -0.19100
C1502       C  0.57782712  0.16990867  0.54906361    -0.19100
H1503       H  0.55431281  0.17867183  0.40373192     0.13800
H1504       H  0.50575375  0.22826421  0.40174884     0.13800
H1505       H  0.53150253  0.16924971  0.59369484     0.13800
H1506       H  0.48241368  0.21889019  0.59158847     0.13800
H1507       H  0.64733271  0.13925998  0.47861156     0.12100
H1508       H  0.64251639  0.13814128  0.53049767     0.12100
H1509       H  0.96264471  0.32597093  0.47123044     0.12100
H1510       H  0.95726158  0.32409655  0.52312546     0.12100
H1511       H  0.54925575  0.22714016  0.47902851     0.25300
H1512       H  0.54545520  0.22627641  0.52260844     0.25300
N1513       N  0.77948275  0.45628275  0.96002138    -0.37400
N1514       N  0.82045826  0.41760902  0.99874107    -0.58000
N1515       N  0.78834768  0.46136811  0.03977636    -0.37400
N1516       N  0.74344315  0.49617451  0.00099485    -0.58000
C1517       C  0.79305418  0.43018520  0.94509515     0.26200
C1518       C  0.75256987  0.47085852  0.94626276     0.26200
C1519       C  0.80516102  0.43674835  0.05441237     0.26200
C1520       C  0.76497137  0.47811407  0.05565189     0.26200
C1521       C  0.83718899  0.40651983  0.97679670     0.34800
C1522       C  0.84126142  0.40822387  0.01917888     0.34800
C1523       C  0.73164887  0.01368167  0.97975507     0.34800
C1524       C  0.73580879  0.01609580  0.02219014     0.34800
C1525       C  0.77454989  0.42809135  0.92153727    -0.22700
C1526       C  0.74899313  0.45379744  0.92225707    -0.22700
C1527       C  0.79259956  0.43815621  0.08003000    -0.22700
C1528       C  0.76729532  0.46421959  0.08080860    -0.22700
C1529       C  0.86844674  0.38938223  0.98327394    -0.23800
C1530       C  0.87100806  0.39038881  0.01023414    -0.23800
C1531       C  0.71518137  0.04458805  0.98738335    -0.23800
C1532       C  0.71776993  0.04610644  0.01434700    -0.23800
C1533       C  0.82366979  0.41039578  0.95112022    -0.19100
C1534       C  0.73403870  0.00132370  0.95366490    -0.19100
C1535       C  0.74315521  0.00671617  0.04852919    -0.19100
C1536       C  0.83311758  0.41454698  0.04582653    -0.19100
H1537       H  0.77944124  0.41037282  0.90527810     0.13800
H1538       H  0.73042014  0.45973010  0.90660497     0.13800
H1539       H  0.80102055  0.42224396  0.09654723     0.13800
H1540       H  0.75248701  0.47220551  0.09802508     0.13800
H1541       H  0.88726213  0.37728048  0.96999282     0.12100
H1542       H  0.89234203  0.37935551  0.02189965     0.12100
H1543       H  0.70245659  0.06385601  0.97485984     0.12100
H1544       H  0.70754118  0.06689144  0.02674719     0.12100
H1545       H  0.79000179  0.46565425  0.97754517     0.25300
H1546       H  0.79411147  0.46781136  0.02044095     0.25300
C1547       C  0.88497782  0.36090145  0.85408691     0.79400
N1548       N  0.86913640  0.33307210  0.84203289    -0.78900
C1549       C  0.88024614  0.32209127  0.81801244     0.81800
N1550       N  0.90734809  0.33899012  0.80590770    -0.78800
C1551       C  0.92315443  0.36691676  0.81767478     0.81900
N1552       N  0.91206749  0.37763070  0.84172283    -0.80600
C1553       C  0.92883519  0.10010643  0.86024211     0.79400
N1554       N  0.94683305  0.07429667  0.84739319    -0.78900
C1555       C  0.93885360  0.06612707  0.82207825     0.81800
N1556       N  0.91346753  0.08463522  0.80917396    -0.78800
C1557       C  0.89427540  0.10941289  0.82200340     0.81900
N1558       N  0.90226015  0.11731868  0.84737327    -0.80600
C1559       C  0.68618867  0.06195769  0.85644799     0.79400
N1560       N  0.70294629  0.08856426  0.84369877    -0.78900
C1561       C  0.69357861  0.09747368  0.81880552     0.81800
N1562       N  0.66717402  0.07968833  0.80647634    -0.78800
C1563       C  0.65053635  0.05276290  0.81884009     0.81900
N1564       N  0.65999859  0.04402629  0.84376736    -0.80600
C1565       C  0.65105429  0.32383444  0.86077000     0.79400
N1566       N  0.67640899  0.30486159  0.84794304    -0.78900
C1567       C  0.68263258  0.31019434  0.82190137     0.81800
N1568       N  0.66282700  0.33399493  0.80844723    -0.78800
C1569       C  0.63869423  0.35411381  0.82123979     0.81900
N1570       N  0.63274480  0.34868446  0.84717111    -0.80600
C1571       C  0.64619060  0.10006110  0.63702936     0.79400
N1572       N  0.67311745  0.11689897  0.64971456    -0.78900
C1573       C  0.68311644  0.10709237  0.67426615     0.81800
N1574       N  0.66536445  0.08082129  0.68655935    -0.78800
C1575       C  0.63952349  0.06268614  0.67374025     0.81900
N1576       N  0.62953913  0.07281359  0.64917867    -0.80600
C1577       C  0.89360851  0.06529453  0.63924059     0.79400
N1578       N  0.92014404  0.04808621  0.65195784    -0.78900
C1579       C  0.93031855  0.05805687  0.67645472     0.81800
N1580       N  0.91369530  0.08525368  0.68850438    -0.78800
C1581       C  0.88664581  0.10213798  0.67619594     0.81900
N1582       N  0.87665170  0.09209595  0.65166352    -0.80600
N1583       N  0.82980880  0.24908543  0.69787175    -0.06900
N1584       N  0.83824041  0.27184358  0.67924212    -0.59100
N1585       N  0.85428626  0.16954101  0.71696154    -0.06600
N1586       N  0.87861600  0.14537116  0.71232365    -0.61200
N1587       N  0.82984563  0.16919017  0.69839692    -0.06200
N1588       N  0.83719367  0.14498415  0.68061510    -0.59000
N1589       N  0.85342868  0.25002331  0.71698003    -0.05900
N1590       N  0.87795390  0.27383111  0.71203421    -0.61500
C1591       C  0.86801780  0.28738632  0.68860541     0.95200
C1592       C  0.86754326  0.13031219  0.68966705     0.95000
N1593       N  0.83106933  0.16972434  0.79809363    -0.07100
N1594       N  0.84035312  0.14701916  0.81657804    -0.59600
N1595       N  0.85297660  0.25043152  0.77911128    -0.05200
N1596       N  0.87540765  0.27657083  0.78306207    -0.60900
N1597       N  0.82867801  0.24993151  0.79767855    -0.07200
N1598       N  0.83413514  0.27555928  0.81471893    -0.59900
N1599       N  0.85453881  0.16960158  0.77895525    -0.04900
N1600       N  0.87972459  0.14637460  0.78369407    -0.61000
Mn1601     Mn  0.85462438  0.20991683  0.74805575     1.18400
C1602       C  0.87041143  0.13228459  0.80702781     0.97300
C1603       C  0.86325608  0.29195642  0.80527472     0.98000
N1604       N  0.74515289  0.16862351  0.69814925    -0.07200
N1605       N  0.73643984  0.14549698  0.67977516    -0.63500
N1606       N  0.72142402  0.24911266  0.71722455    -0.06000
N1607       N  0.69852665  0.27490865  0.71339034    -0.64200
N1608       N  0.74574422  0.24918940  0.69866828    -0.06700
N1609       N  0.73985079  0.27489925  0.68177898    -0.63700
N1610       N  0.72170690  0.16803354  0.71729028    -0.05600
N1611       N  0.69716293  0.14408537  0.71268206    -0.64400
Mn1612     Mn  0.78753674  0.20893679  0.69751283     1.10700
C1613       C  0.70684871  0.12995387  0.68943213     0.98500
C1614       C  0.71039804  0.29072137  0.69126388     0.98600
N1615       N  0.74456078  0.24821629  0.79835301    -0.06700
N1616       N  0.73567500  0.27113420  0.81680129    -0.62100
N1617       N  0.72233157  0.16760585  0.77908236    -0.06000
N1618       N  0.69951458  0.14184856  0.78316676    -0.58800
N1619       N  0.74675377  0.16795673  0.79764988    -0.07300
N1620       N  0.74091345  0.14269024  0.81488026    -0.61600
N1621       N  0.72097715  0.24849730  0.77921861    -0.06300
N1622       N  0.69604621  0.27198421  0.78393678    -0.58800
Mn1623     Mn  0.78778680  0.20892653  0.79871934     1.20200
Mn1624     Mn  0.72073453  0.20832405  0.74817309     1.10100
Cl1625     Cl  0.78768543  0.20899474  0.74810858    -0.86800
C1626       C  0.70563750  0.28605622  0.80727574     0.95600
C1627       C  0.71150455  0.12658189  0.80550097     0.95300
C1628       C  0.92191953  0.32605908  0.63524149     0.79400
N1629       N  0.93891283  0.35211429  0.64860126    -0.78900
C1630       C  0.93203796  0.35799503  0.67438372     0.81800
N1631       N  0.90853772  0.33712675  0.68713803    -0.78800
C1632       C  0.89020995  0.31204576  0.67385668     0.81900
N1633       N  0.89731470  0.30618090  0.64800972    -0.80600
C1634       C  0.68644939  0.35872239  0.64217714     0.79400
N1635       N  0.70346613  0.33171496  0.65441386    -0.78900
C1636       C  0.69235535  0.32020627  0.67834281     0.81800
N1637       N  0.66408643  0.33575641  0.69011343    -0.78800
C1638       C  0.64711925  0.36280124  0.67808733     0.81900
N1639       N  0.65826520  0.37400720  0.65420558    -0.80600
N1640       N  0.99519426  0.41906628  0.79741094    -0.06900
N1641       N  0.96928105  0.41359120  0.81437980    -0.59100
N1642       N  0.57601107  0.39213826  0.77888359    -0.06600
N1643       N  0.59976645  0.36735515  0.78333935    -0.61200
N1644       N  0.57631349  0.41553911  0.79795108    -0.06200
N1645       N  0.59993601  0.40674436  0.81605900    -0.59000
N1646       N  0.99460325  0.39502525  0.77878277    -0.05900
N1647       N  0.96823010  0.37282697  0.78255915    -0.61500
C1648       C  0.95270589  0.38475745  0.80474296     0.95200
C1649       C  0.61470805  0.37698919  0.80640302     0.95000
N1650       N  0.57645060  0.41654975  0.69850215    -0.07100
N1651       N  0.60194131  0.41002142  0.68144480    -0.59600
N1652       N  0.99451929  0.39471086  0.71728809    -0.05200
N1653       N  0.96973122  0.37101029  0.71275605    -0.60900
N1654       N  0.99553358  0.41795857  0.69816490    -0.07200
N1655       N  0.97180126  0.40999183  0.67987994    -0.59900
N1656       N  0.57593799  0.39237595  0.71700653    -0.04900
N1657       N  0.60126031  0.36896590  0.71301826    -0.61000
Mn1658     Mn  0.53521364  0.39274592  0.74803879     1.18400
C1659       C  0.61719023  0.38039170  0.69080732     0.97300
C1660       C  0.95554193  0.38100289  0.68955276     0.98000
N1661       N  0.57999029  0.99899264  0.79768624    -0.07200
N1662       N  0.60538027  0.00511915  0.81506815    -0.63500
N1663       N  0.99889454  0.02580220  0.77908696    -0.06000
N1664       N  0.97606644  0.05126197  0.78386457    -0.64200
N1665       N  0.99875855  0.00263552  0.79828849    -0.06700
N1666       N  0.97625334  0.01235631  0.81686592    -0.63700
N1667       N  0.58058463  0.02282370  0.77894025    -0.05600
N1668       N  0.60650916  0.04547184  0.78301065    -0.64400
Mn1669     Mn  0.53747888  0.45903403  0.79869698     1.10700
C1670       C  0.62173425  0.03406674  0.80550782     0.98500
C1671       C  0.96193496  0.04239705  0.80729233     0.98600
N1672       N  0.99763557  0.00134968  0.69854233    -0.06700
N1673       N  0.97303569  0.00878445  0.68089817    -0.62100
N1674       N  0.57995051  0.02316068  0.71727025    -0.06000
N1675       N  0.60373092  0.04766125  0.71241779    -0.58800
N1676       N  0.57864253  0.00022819  0.69790365    -0.07300
N1677       N  0.60106876  0.00936587  0.67907307    -0.61600
N1678       N  0.99834064  0.02544228  0.71712704    -0.06300
N1679       N  0.97403672  0.04970959  0.71261234    -0.58800
Mn1680     Mn  0.53699640  0.45901993  0.69753194     1.20200
Mn1681     Mn  0.53958329  0.02503108  0.74814196     1.10100
Cl1682     Cl  0.53729226  0.45896048  0.74810757    -0.86800
C1683       C  0.95851436  0.03887553  0.69002144     0.95600
C1684       C  0.61696194  0.03864080  0.68875180     0.95300
C1685       C  0.74117360  0.04467640  0.91811328    -0.27100
C1686       C  0.71851670  0.02229362  0.93198825    -0.15200
C1687       C  0.68400109  0.01587544  0.92258907     0.35400
C1688       C  0.67334314  0.03089209  0.89858896    -0.26600
C1689       C  0.69683198  0.05158004  0.88358066    -0.15800
C1690       C  0.73083792  0.05954415  0.89405144     0.36500
N1691       N  0.75562250  0.08092295  0.87972428    -0.90100
H1692       H  0.76778273  0.04917012  0.92556767     0.17600
H1693       H  0.64701292  0.02520360  0.89109783     0.17600
N1694       N  0.66018890  0.49246230  0.93662326    -0.89100
H1695       H  0.78037782  0.08126812  0.88908132     0.35000
H1696       H  0.74625454  0.10677432  0.88036305     0.40100
H1697       H  0.67128437  0.46727711  0.93626796     0.39700
H1698       H  0.63563851  0.49060343  0.92707852     0.34600
C1699       C  0.86517679  0.41748613  0.91423044    -0.27100
C1700       C  0.84330259  0.39497912  0.92870982    -0.15200
C1701       C  0.83723869  0.36036939  0.91974117     0.35400
C1702       C  0.85182365  0.34981026  0.89568278    -0.26600
C1703       C  0.87241182  0.37287260  0.88032595    -0.15800
C1704       C  0.87972784  0.40703001  0.89010150     0.36500
N1705       N  0.90065821  0.43156485  0.87522811    -0.90100
H1706       H  0.86951306  0.44404634  0.92128120     0.17600
H1707       H  0.84642144  0.32338627  0.88879259     0.17600
N1708       N  0.81546889  0.33578241  0.93389167    -0.89100
H1709       H  0.90461712  0.45482181  0.88581138     0.35000
H1710       H  0.88598816  0.43841786  0.85851323     0.40100
H1711       H  0.80581602  0.34653235  0.95135628     0.39700
H1712       H  0.83163002  0.31462529  0.93929157     0.34600
C1713       C  0.59722097  0.11485771  0.57204080    -0.27100
C1714       C  0.59619223  0.15172747  0.57119069    -0.15200
C1715       C  0.61280163  0.17127540  0.59127663     0.35400
C1716       C  0.62957884  0.15357262  0.61207284    -0.26600
C1717       C  0.63018970  0.11661809  0.61333863    -0.15800
C1718       C  0.61388875  0.09713152  0.59285724     0.36500
N1719       N  0.61447726  0.05950024  0.59227945    -0.90100
H1720       H  0.58473289  0.09978469  0.55646686     0.17600
H1721       H  0.64158129  0.16886992  0.62772622     0.17600
N1722       N  0.61226708  0.20906350  0.59053696    -0.89100
H1723       H  0.60013694  0.04990644  0.60828919     0.35000
H1724       H  0.64083828  0.05110471  0.59381324     0.40100
H1725       H  0.62670533  0.21699801  0.57403753     0.39700
H1726       H  0.62527808  0.21954607  0.60695507     0.34600
C1727       C  0.93291521  0.27848341  0.56973557    -0.27100
C1728       C  0.96967970  0.28181161  0.56610697    -0.15200
C1729       C  0.98963244  0.30307649  0.58330560     0.35400
C1730       C  0.97270824  0.31938944  0.60458629    -0.26600
C1731       C  0.93631528  0.31425542  0.60949153    -0.15800
C1732       C  0.91595301  0.29450375  0.59133820     0.36500
N1733       N  0.87838764  0.29032339  0.59512373    -0.90100
H1734       H  0.91771779  0.26246258  0.55614544     0.17600
H1735       H  0.98864621  0.33451826  0.61827085     0.17600
N1736       N  0.02716428  0.30757411  0.57928956    -0.89100
H1737       H  0.86742460  0.27497601  0.58009092     0.35000
H1738       H  0.86678368  0.31520834  0.59357590     0.40100
H1739       H  0.03947338  0.28337467  0.58267318     0.39700
H1740       H  0.03772956  0.32498997  0.59317258     0.34600
C1741       C  0.65515336  0.28376720  0.89974702    -0.27100
C1742       C  0.63835951  0.31239932  0.88729604    -0.15200
C1743       C  0.60683480  0.32616441  0.89868507     0.35400
C1744       C  0.59115621  0.30868077  0.92001892    -0.26600
C1745       C  0.60662308  0.27862091  0.93091975    -0.15800
C1746       C  0.63982074  0.26685198  0.92143825     0.36500
N1747       N  0.65830296  0.23750249  0.93288353    -0.90100
H1748       H  0.67976776  0.27335701  0.89197808     0.17600
H1749       H  0.56617913  0.31807914  0.92790724     0.17600
N1750       N  0.59001972  0.35706944  0.88818009    -0.89100
H1751       H  0.65890448  0.21739608  0.91886326     0.35000
H1752       H  0.64506680  0.22759346  0.94929197     0.40100
H1753       H  0.60712279  0.37824696  0.89157714     0.39700
H1754       H  0.56652239  0.36272104  0.89824925     0.34600
C1755       C  0.93118153  0.14778539  0.89394175    -0.27100
C1756       C  0.94256078  0.11426056  0.88571133    -0.15200
C1757       C  0.96964635  0.09712695  0.90031050     0.35400
C1758       C  0.98606217  0.11483115  0.92136051    -0.26600
C1759       C  0.97584262  0.14895050  0.92835459    -0.15800
C1760       C  0.94752415  0.16537560  0.91488808     0.36500
N1761       N  0.93482062  0.19987958  0.92168741    -0.90100
H1762       H  0.91024890  0.16134487  0.88339856     0.17600
H1763       H  0.00739104  0.10223399  0.93216682     0.17600
N1764       N  0.98084588  0.06213615  0.89359390    -0.89100
H1765       H  0.93999688  0.21648254  0.90577162     0.35000
H1766       H  0.94821567  0.21038803  0.93786379     0.40100
H1767       H  0.95941349  0.04531806  0.89706267     0.39700
H1768       H  0.00144125  0.05381739  0.90593949     0.34600
C1769       C  0.84609183  0.06068393  0.60545469    -0.27100
C1770       C  0.88117443  0.05315525  0.61305318    -0.15200
C1771       C  0.90279403  0.03268003  0.59618289     0.35400
C1772       C  0.88798664  0.01823975  0.57320403    -0.26600
C1773       C  0.85239448  0.02425460  0.56663008    -0.15800
C1774       C  0.83141695  0.04648599  0.58254821     0.36500
N1775       N  0.79504650  0.05472153  0.57638506    -0.90100
H1776       H  0.82927405  0.07670959  0.61789455     0.17600
H1777       H  0.90386280  0.00127018  0.56077359     0.17600
N1778       N  0.93945640  0.02625985  0.60249613    -0.89100
H1779       H  0.77911336  0.04328561  0.59085757     0.35000
H1780       H  0.78712321  0.04412816  0.55837020     0.40100
H1781       H  0.95266713  0.05041096  0.60181482     0.39700
H1782       H  0.95127192  0.01026429  0.58825286     0.34600
C1783       C  0.70483047  0.41750888  0.58305965    -0.27100
C1784       C  0.72610521  0.39556909  0.56759955    -0.15200
C1785       C  0.73267123  0.36067243  0.57582445     0.35400
C1786       C  0.71875526  0.34913471  0.59988911    -0.26600
C1787       C  0.69874582  0.37162102  0.61611423    -0.15800
C1788       C  0.69150120  0.40626732  0.60736721     0.36500
N1789       N  0.67220193  0.43059407  0.62361974    -0.90100
H1790       H  0.70042867  0.44439106  0.57677980     0.17600
H1791       H  0.72429907  0.32247205  0.60615551     0.17600
N1792       N  0.75450331  0.33683568  0.56099502    -0.89100
H1793       H  0.66862223  0.45460917  0.61396193     0.35000
H1794       H  0.68787898  0.43588727  0.64015298     0.40100
H1795       H  0.76359196  0.34825943  0.54361758     0.39700
H1796       H  0.73857554  0.31558399  0.55541610     0.34600
C1797       C  0.72905680  0.06678318  0.10763557    -0.27100
C1798       C  0.69269169  0.06167443  0.11281457    -0.15200
C1799       C  0.67280266  0.04014644  0.09559369     0.35400
C1800       C  0.68966786  0.02325599  0.07444683    -0.26600
C1801       C  0.72615077  0.02748814  0.06993732    -0.15800
C1802       C  0.74597115  0.05012068  0.08648414     0.36500
N1803       N  0.78313991  0.05690237  0.08246705    -0.90100
H1804       H  0.74493207  0.08317887  0.12052978     0.17600
H1805       H  0.67428555  0.00620402  0.06168887     0.17600
N1806       N  0.63545774  0.03535987  0.09940561    -0.89100
H1807       H  0.79703859  0.04540349  0.09807263     0.35000
H1808       H  0.79252177  0.04547002  0.06516689     0.40100
H1809       H  0.63062426  0.00848399  0.10174434     0.39700
H1810       H  0.62235808  0.04368799  0.08235500     0.34600
C1811       C  0.64549579  0.15759922  0.39532385    -0.27100
C1812       C  0.63087541  0.12613944  0.38543320    -0.15200
C1813       C  0.60720322  0.10695575  0.40151608     0.35400
C1814       C  0.59604513  0.12120249  0.42557552    -0.26600
C1815       C  0.60810095  0.15420308  0.43393528    -0.15800
C1816       C  0.63440129  0.17184554  0.41928700     0.36500
N1817       N  0.64948428  0.20474735  0.42765645    -0.90100
H1818       H  0.66463629  0.17231804  0.38389706     0.17600
H1819       H  0.57606043  0.10751260  0.43695394     0.17600
N1820       N  0.59362575  0.07352155  0.39334401    -0.89100
H1821       H  0.64108480  0.22409811  0.41444265     0.35000
H1822       H  0.64048103  0.21209465  0.44626940     0.40100
H1823       H  0.56593077  0.07520229  0.39254363     0.39700
H1824       H  0.60039317  0.05498027  0.40767621     0.34600
C1825       C  0.84464338  0.07135932  0.39266083    -0.27100
C1826       C  0.88089286  0.06657327  0.38696160    -0.15200
C1827       C  0.90126950  0.04447114  0.40352434     0.35400
C1828       C  0.88487552  0.02670864  0.42450420    -0.26600
C1829       C  0.84833189  0.03019686  0.42907143    -0.15800
C1830       C  0.82827759  0.05311563  0.41329017     0.36500
N1831       N  0.79056263  0.55858451  0.41828576    -0.90100
H1832       H  0.82829910  0.08794574  0.38025603     0.17600
H1833       H  0.90052161  0.00935377  0.43683013     0.17600
N1834       N  0.93846766  0.03960972  0.39897857    -0.89100
H1835       H  0.77750965  0.05004513  0.40068703     0.35000
H1836       H  0.78606278  0.58529784  0.42175332     0.40100
H1837       H  0.94303572  0.01281159  0.39590133     0.39700
H1838       H  0.95215271  0.04712473  0.41599503     0.34600
C1839       C  0.64392502  0.28646879  0.10138124    -0.27100
C1840       C  0.62147651  0.30845978  0.11622827    -0.15200
C1841       C  0.58749921  0.31707130  0.10602148     0.35400
C1842       C  0.57663820  0.30263995  0.08192070    -0.26600
C1843       C  0.59839768  0.27932150  0.06807114    -0.15800
C1844       C  0.63278174  0.27162749  0.07755612     0.36500
N1845       N  0.65632667  0.24766503  0.06433599    -0.90100
H1846       H  0.67016236  0.27985788  0.10863183     0.17600
H1847       H  0.55014379  0.30798192  0.07455263     0.17600
N1848       N  0.56339313  0.33903616  0.12051752    -0.89100
H1849       H  0.67878382  0.26188289  0.05865796     0.35000
H1850       H  0.64511882  0.23769096  0.04709156     0.40100
H1851       H  0.55559600  0.32504896  0.13723460     0.39700
H1852       H  0.54023971  0.34372962  0.10968262     0.34600
C1853       C  0.94700328  0.17188211  0.07958573    -0.27100
C1854       C  0.97132621  0.15085024  0.06604943    -0.15200
C1855       C  0.98001441  0.11735369  0.07578089     0.35400
C1856       C  0.96568366  0.10632671  0.09992020    -0.26600
C1857       C  0.94280765  0.12822373  0.11450671    -0.15800
C1858       C  0.93265899  0.16101429  0.10362920     0.36500
N1859       N  0.90908927  0.18421954  0.11730278    -0.90100
H1860       H  0.94058793  0.19780452  0.07210904     0.17600
H1861       H  0.97326952  0.08089095  0.10765749     0.17600
N1862       N  0.50664640  0.09611086  0.06260861    -0.89100
H1863       H  0.88731634  0.18931571  0.10508461     0.35000
H1864       H  0.92235834  0.20795019  0.12065175     0.40100
H1865       H  0.49543385  0.08895026  0.04455317     0.39700
H1866       H  0.51131081  0.07278267  0.07291254     0.34600
C1867       C  0.70922887  0.35075827  0.40021951    -0.27100
C1868       C  0.68168518  0.36896901  0.38725735    -0.15200
C1869       C  0.67064088  0.40186658  0.39758379     0.35400
C1870       C  0.68912106  0.41692842  0.41871655    -0.26600
C1871       C  0.71800446  0.39970677  0.43018995    -0.15800
C1872       C  0.72737870  0.36578284  0.42166106     0.36500
N1873       N  0.75621197  0.34743902  0.43414781    -0.90100
H1874       H  0.71763225  0.32528759  0.39302551     0.17600
H1875       H  0.68141286  0.44268821  0.42582390     0.17600
N1876       N  0.64151240  0.42084720  0.38628603    -0.89100
H1877       H  0.76020083  0.32297535  0.42525243     0.35000
H1878       H  0.74874694  0.34239065  0.45357799     0.40100
H1879       H  0.65084931  0.44530558  0.37997806     0.39700
H1880       H  0.62264985  0.42513391  0.40100329     0.34600
C1881       C  0.89511271  0.40217928  0.10382099    -0.27100
C1882       C  0.88818502  0.36702089  0.11072269    -0.15200
C1883       C  0.86673338  0.34643260  0.09389845     0.35400
C1884       C  0.85051051  0.36197242  0.07189639    -0.26600
C1885       C  0.85549857  0.39771610  0.06630286    -0.15800
C1886       C  0.87917511  0.41771844  0.08186595     0.36500
N1887       N  0.88716104  0.45393580  0.07630787    -0.90100
H1888       H  0.91180797  0.41846687  0.11620959     0.17600
H1889       H  0.83282989  0.34642519  0.05970730     0.17600
N1890       N  0.86091491  0.30993481  0.09924456    -0.89100
H1891       H  0.87612565  0.46918456  0.09133138     0.35000
H1892       H  0.87582713  0.46231040  0.05864421     0.40100
H1893       H  0.86956643  0.29549623  0.08296688     0.39700
H1894       H  0.83359564  0.30590524  0.10126683     0.34600
C1895       C  0.98237687  0.32070268  0.38981669    -0.27100
C1896       C  0.94806670  0.30984979  0.38229741    -0.15200
C1897       C  0.92882606  0.28756622  0.39932108     0.35400
C1898       C  0.94500197  0.27482035  0.42228989    -0.26600
C1899       C  0.97990072  0.28419923  0.42881459    -0.15800
C1900       C  0.99846608  0.30828454  0.41281329     0.36500
N1901       N  0.53326484  0.32023103  0.41941339    -0.90100
H1902       H  0.99745637  0.33836578  0.37742091     0.17600
H1903       H  0.93064076  0.25657132  0.43470114     0.17600
N1904       N  0.89295030  0.27774676  0.39349614    -0.89100
H1905       H  0.55069275  0.31062074  0.40513711     0.35000
H1906       H  0.54197111  0.31066478  0.43754756     0.40100
H1907       H  0.87695092  0.28586865  0.40914784     0.39700
H1908       H  0.89173736  0.25032783  0.39241090     0.34600
C1909       C  0.93355660  0.82156697  0.35665506     0.79400
N1910       N  0.90617937  0.80452664  0.34464736    -0.78900
C1911       C  0.89442494  0.81515200  0.32062459     0.81800
N1912       N  0.91018270  0.84279823  0.30848718    -0.78800
C1913       C  0.93779096  0.85956933  0.32014656     0.81900
N1914       N  0.94933119  0.84888496  0.34409053    -0.80600
C1915       C  0.90027578  0.85396473  0.13705261     0.79400
N1916       N  0.88098436  0.82915432  0.14995237    -0.78900
C1917       C  0.88668705  0.82292816  0.17592536     0.81800
N1918       N  0.91097021  0.84235658  0.18926404    -0.78800
C1919       C  0.93130425  0.86613184  0.17639393     0.81900
N1920       N  0.92565292  0.87208261  0.15044736    -0.80600
C1921       C  0.66920319  0.85586286  0.36119790     0.79400
N1922       N  0.68777844  0.83040688  0.34833241    -0.78900
C1923       C  0.68117154  0.82337857  0.32257786     0.81800
N1924       N  0.65652945  0.84254077  0.30938113    -0.77200
C1925       C  0.63668033  0.86673675  0.32228204     0.81900
N1926       N  0.64333330  0.87346984  0.34799128    -0.80600
C1927       C  0.93108341  0.61659366  0.14111435     0.79400
N1928       N  0.90458333  0.63377069  0.15386936    -0.78900
C1929       C  0.89455407  0.62391381  0.17837866     0.81800
N1930       N  0.91101267  0.59654699  0.19032980    -0.78800
C1931       C  0.93777049  0.57941519  0.17796735     0.81900
N1932       N  0.94773604  0.58945198  0.15344082    -0.80600
N1933       N  0.49158140  0.92971069  0.19991706    -0.06900
N1934       N  0.48363660  0.90581382  0.18196598    -0.59100
N1935       N  0.96751052  0.01004801  0.21804547    -0.06600
N1936       N  0.94423209  0.53512903  0.21355711    -0.61200
N1937       N  0.49225874  0.00993609  0.19975660    -0.06200
N1938       N  0.48572202  0.53491158  0.18225070    -0.59000
N1939       N  0.96761300  0.92925954  0.21863348    -0.05900
N1940       N  0.94355150  0.90477613  0.21424414    -0.61500
C1941       C  0.95391762  0.89015345  0.19132271     0.95200
C1942       C  0.95588310  0.55032332  0.19115014     0.95000
N1943       N  0.49089989  0.00978075  0.29960180    -0.07100
N1944       N  0.48188088  0.53235988  0.31808027    -0.59600
N1945       N  0.96708247  0.92942909  0.28036735    -0.05200
N1946       N  0.94376156  0.90413813  0.28457951    -0.60900
N1947       N  0.49188092  0.92956116  0.29906333    -0.07200
N1948       N  0.48567303  0.90442636  0.31630980    -0.59900
N1949       N  0.96703498  0.01025284  0.28023183    -0.04900
N1950       N  0.94229413  0.53362471  0.28488986    -0.61000
Mn1951     Mn  0.96639310  0.96981985  0.24928716     1.18400
C1952       C  0.95195719  0.54748379  0.30828999     0.97300
C1953       C  0.95557006  0.88879855  0.30693213     0.98000
N1954       N  0.57686028  0.00956355  0.19920485    -0.07200
N1955       N  0.58603023  0.53171604  0.18028024    -0.63500
N1956       N  0.59982402  0.92919238  0.21857467    -0.06000
N1957       N  0.62273057  0.90344045  0.21460621    -0.64200
N1958       N  0.57537098  0.92920738  0.20005629    -0.06700
N1959       N  0.58116472  0.90367705  0.18301380    -0.63700
N1960       N  0.59988798  0.51033069  0.21841910    -0.05600
N1961       N  0.62515638  0.53335030  0.21342768    -0.64400
Mn1962     Mn  0.53397398  0.96967961  0.19896286     1.10700
C1963       C  0.61608158  0.54672643  0.18976380     0.98500
C1964       C  0.61069132  0.88781048  0.19239532     0.98600
N1965       N  0.57603648  0.92989981  0.29925301    -0.06700
N1966       N  0.58420024  0.90609208  0.31721299    -0.62100
N1967       N  0.59901079  0.51059381  0.28055032    -0.06000
N1968       N  0.62208565  0.53609989  0.28471538    -0.58800
N1969       N  0.57517300  0.01033523  0.29927103    -0.07300
N1970       N  0.58112978  0.53540055  0.31658415    -0.61600
N1971       N  0.59965656  0.92961060  0.28022907    -0.06300
N1972       N  0.62386297  0.90524031  0.28451786    -0.58800
Mn1973     Mn  0.53354633  0.96989005  0.30010035     1.20200
Mn1974     Mn  0.60062993  0.96999513  0.24951770     1.10100
Cl1975     Cl  0.53370146  0.97005304  0.24952877    -0.86800
C1976       C  0.61372538  0.89057002  0.30745097     0.95600
C1977       C  0.61057787  0.55131981  0.30717217     0.95300
C1978       C  0.63382045  0.82088649  0.14246003     0.79400
N1979       N  0.61754831  0.84799612  0.15500020    -0.78900
C1980       C  0.62851175  0.85847829  0.17920670     0.81800
N1981       N  0.65617653  0.84190339  0.19097479    -0.78800
C1982       C  0.67255949  0.81470950  0.17869745     0.81900
N1983       N  0.66137022  0.80430695  0.15452857    -0.80600
C1984       C  0.89451654  0.58040297  0.36161170     0.79400
N1985       N  0.87689122  0.60668630  0.34890308    -0.78900
C1986       C  0.88484454  0.61483988  0.32359121     0.81800
N1987       N  0.90984494  0.59593493  0.31064641    -0.78800
C1988       C  0.92863206  0.57071153  0.32336181     0.81900
N1989       N  0.92060042  0.56271872  0.34867721    -0.80600
C1990       C  0.63922171  0.61546134  0.35790531     0.79400
N1991       N  0.62109994  0.58927228  0.34549681    -0.78900
C1992       C  0.62920316  0.58025513  0.32032538     0.81800
N1993       N  0.65541658  0.59757949  0.30744779    -0.78800
C1994       C  0.67303810  0.62418336  0.31947831     0.81900
N1995       N  0.66490920  0.63293977  0.34455773    -0.80600
C1996       C  0.67688847  0.57666880  0.13729740     0.79400
N1997       N  0.64996328  0.55964370  0.14983863    -0.78900
C1998       C  0.64026366  0.56913397  0.17459018     0.81800
N1999       N  0.65828347  0.59512429  0.18711177    -0.78800
C2000       C  0.68410760  0.61330194  0.17447609     0.81900
N2001       N  0.69368292  0.60366252  0.14978175    -0.80600
N2002       N  0.82443117  0.76076165  0.29914380    -0.06900
N2003       N  0.84949777  0.76726886  0.31670538    -0.59100
N2004       N  0.74311717  0.78524122  0.27992733    -0.06600
N2005       N  0.71936422  0.80990284  0.28458087    -0.61200
N2006       N  0.74343473  0.76194027  0.29903724    -0.06200
N2007       N  0.72027346  0.77076911  0.31741888    -0.59000
N2008       N  0.82452033  0.78486083  0.28057345    -0.05900
N2009       N  0.84975658  0.80816863  0.28502683    -0.61500
C2010       C  0.86509466  0.79682512  0.30753657     0.95200
C2011       C  0.70512750  0.80040955  0.30784184     0.95000
N2012       N  0.74316992  0.76079873  0.19945983    -0.07100
N2013       N  0.71780409  0.76722371  0.18214601    -0.59600
N2014       N  0.82457425  0.78511098  0.21852924    -0.05200
N2015       N  0.84837799  0.80970451  0.21388582    -0.60900
N2016       N  0.82409474  0.76187761  0.19933842    -0.07200
N2017       N  0.84720824  0.77066625  0.18093500    -0.59900
N2018       N  0.74322206  0.78488023  0.21807561    -0.04900
N2019       N  0.71775348  0.80804277  0.21393639    -0.61000
Mn2020     Mn  0.78389136  0.78579975  0.24926464     1.18400
C2021       C  0.70215893  0.79664938  0.19154764     0.97300
C2022       C  0.86245156  0.80022831  0.19055601     0.98000
N2023       N  0.74264676  0.67850793  0.29825583    -0.07200
N2024       N  0.71723876  0.67216226  0.31541459    -0.63500
N2025       N  0.82421901  0.65394245  0.28023215    -0.06000
N2026       N  0.84772740  0.62912151  0.28511801    -0.64200
N2027       N  0.82365553  0.67711895  0.29944990    -0.06700
N2028       N  0.84637541  0.66799621  0.31814383    -0.63700
N2029       N  0.74266772  0.65446758  0.27962688    -0.05600
N2030       N  0.71706790  0.63139649  0.28358492    -0.64400
Mn2031     Mn  0.78355841  0.71955955  0.29975251     1.10700
C2032       C  0.70146451  0.64287094  0.30589909     0.98500
C2033       C  0.86156529  0.63833668  0.30862682     0.98600
N2034       N  0.82495945  0.67843702  0.19972360    -0.06700
N2035       N  0.85016623  0.67195245  0.18239530    -0.62100
N2036       N  0.74356383  0.65377952  0.21797316    -0.06000
N2037       N  0.72042189  0.62864136  0.21307021    -0.58800
N2038       N  0.74398382  0.67686374  0.19871836    -0.07300
N2039       N  0.72156498  0.66726360  0.17993161    -0.61600
N2040       N  0.82500340  0.65440607  0.21833844    -0.06300
N2041       N  0.85038423  0.63116427  0.21416447    -0.58800
Mn2042     Mn  0.78400548  0.71951996  0.19851265     1.20200
Mn2043     Mn  0.78389370  0.65341760  0.24905842     1.10100
Cl2044     Cl  0.78385459  0.71958975  0.24913936    -0.86800
C2045       C  0.86582624  0.64252299  0.19176009     0.95600
C2046       C  0.70663477  0.63749106  0.18949663     0.95300
N2047       N  0.79093021  0.95836496  0.53769316    -0.37400
N2048       N  0.75050077  0.92093212  0.49812836    -0.58000
N2049       N  0.78435435  0.96447262  0.45765425    -0.37400
N2050       N  0.82873717  0.99814789  0.49740352    -0.58000
C2051       C  0.77663539  0.93245134  0.55242090     0.26200
C2052       C  0.81695020  0.97335457  0.55214283     0.26200
C2053       C  0.76787727  0.93990973  0.44270377     0.26200
C2054       C  0.80886561  0.98057113  0.44235863     0.26200
C2055       C  0.73329952  0.90937936  0.51974957     0.34800
C2056       C  0.73004824  0.91226316  0.47730829     0.34800
C2057       C  0.83873506  0.51608611  0.51909109     0.34800
C2058       C  0.83633343  0.51867731  0.47662694     0.34800
C2059       C  0.79384992  0.93092965  0.57655461    -0.22700
C2060       C  0.81925852  0.95681012  0.57639923    -0.22700
C2061       C  0.78177141  0.94076004  0.41745204    -0.22700
C2062       C  0.80763882  0.96634858  0.41725183    -0.22700
C2063       C  0.70200138  0.89275932  0.51265897    -0.23800
C2064       C  0.69995344  0.89452267  0.48568592    -0.23800
C2065       C  0.85498284  0.54730895  0.51194724    -0.23800
C2066       C  0.85354123  0.54891916  0.48496693    -0.23800
C2067       C  0.74644540  0.91232682  0.54565748    -0.19100
C2068       C  0.83547524  0.50368807  0.54509763    -0.19100
C2069       C  0.83001005  0.50948536  0.45012243    -0.19100
C2070       C  0.73938505  0.91806428  0.45079702    -0.19100
H2071       H  0.78812452  0.91354872  0.59285031     0.13800
H2072       H  0.83688191  0.96322994  0.59255151     0.13800
H2073       H  0.77396031  0.92473882  0.40081672     0.13800
H2074       H  0.82357289  0.97379928  0.40046380     0.13800
H2075       H  0.68286468  0.88041895  0.52553850     0.12100
H2076       H  0.67887515  0.88376695  0.47361581     0.12100
H2077       H  0.86667632  0.56682503  0.52482167     0.12100
H2078       H  0.86380691  0.56999664  0.47289059     0.12100
H2079       H  0.78157324  0.96734045  0.51975340     0.25300
H2080       H  0.77775177  0.97125164  0.47677010     0.25300
N2081       N  0.53625137  0.71439224  0.03809745    -0.37400
N2082       N  0.00111812  0.67321979  0.99735180    -0.58000
N2083       N  0.53952575  0.71414047  0.95786538    -0.37400
N2084       N  0.57753896  0.75215922  0.99877084    -0.58000
C2085       C  0.52143951  0.68856877  0.05263192     0.26200
C2086       C  0.56128727  0.72984805  0.05323781     0.26200
C2087       C  0.52411236  0.68929711  0.94258926     0.26200
C2088       C  0.56484221  0.73021438  0.94330110     0.26200
C2089       C  0.98213106  0.66190136  0.01819831     0.34800
C2090       C  0.98363923  0.66226935  0.97568112     0.34800
C2091       C  0.58699606  0.77079006  0.02024482     0.34800
C2092       C  0.58937593  0.77030086  0.97777626     0.34800
C2093       C  0.53708201  0.68778019  0.07735449    -0.22700
C2094       C  0.56226060  0.71379943  0.07772433    -0.22700
C2095       C  0.53946391  0.68991876  0.91781641    -0.22700
C2096       C  0.56514379  0.71565341  0.91826993    -0.22700
C2097       C  0.95275567  0.64307605  0.00982762    -0.23800
C2098       C  0.95372068  0.64325208  0.98280796    -0.23800
C2099       C  0.60537215  0.80076127  0.01297071    -0.23800
C2100       C  0.60701604  0.80039534  0.98597701    -0.23800
C2101       C  0.99216862  0.66691281  0.04463169    -0.19100
C2102       C  0.58158424  0.75959750  0.04631187    -0.19100
C2103       C  0.58636748  0.75887354  0.95146028    -0.19100
C2104       C  0.99516794  0.66773694  0.94959050    -0.19100
H2105       H  0.53076470  0.67051948  0.09359282     0.13800
H2106       H  0.57905578  0.72043005  0.09430340     0.13800
H2107       H  0.53272095  0.67366850  0.90105097     0.13800
H2108       H  0.58185315  0.72300667  0.90188468     0.13800
H2109       H  0.93298656  0.63027256  0.02190856     0.12100
H2110       H  0.93469764  0.63063928  0.96989959     0.12100
H2111       H  0.61695778  0.82041412  0.02578061     0.12100
H2112       H  0.62003893  0.81983932  0.97383193     0.12100
H2113       H  0.52796617  0.72273074  0.01966537     0.25300
H2114       H  0.53175416  0.72097960  0.97668340     0.25300
N2115       N  0.54310250  0.72034283  0.45997250    -0.37400
N2116       N  0.57510686  0.67726072  0.50129157    -0.58000
N2117       N  0.53451899  0.71660663  0.53988452    -0.37400
N2118       N  0.49861413  0.75587515  0.49841323    -0.58000
C2119       C  0.55948904  0.69532729  0.44552342     0.26200
C2120       C  0.51946433  0.73657232  0.44399933     0.26200
C2121       C  0.54741204  0.68997773  0.55474835     0.26200
C2122       C  0.50700359  0.73097798  0.55315035     0.26200
C2123       C  0.59591578  0.66775916  0.48091885     0.34800
C2124       C  0.59183160  0.66630697  0.52331640     0.34800
C2125       C  0.99060502  0.77521587  0.47681709     0.34800
C2126       C  0.98625863  0.77370784  0.51919285     0.34800
C2127       C  0.54649118  0.69607172  0.41995131    -0.22700
C2128       C  0.52126783  0.72206497  0.41899947    -0.22700
C2129       C  0.52786063  0.68740619  0.57774075    -0.22700
C2130       C  0.50237518  0.71331507  0.57674681    -0.22700
C2131       C  0.62578697  0.65023030  0.48992404    -0.23800
C2132       C  0.62333092  0.64950842  0.51688527    -0.23800
C2133       C  0.97265586  0.80545402  0.48414142    -0.23800
C2134       C  0.96999404  0.80456227  0.51109777    -0.23800
C2135       C  0.58726773  0.67315940  0.45426795    -0.19100
C2136       C  0.99745550  0.76489138  0.45070727    -0.19100
C2137       C  0.98786459  0.76150664  0.54534824    -0.19100
C2138       C  0.57792258  0.66965193  0.54895608    -0.19100
H2139       H  0.55449914  0.67977072  0.40354661     0.13800
H2140       H  0.50614031  0.72954648  0.40175998     0.13800
H2141       H  0.53188723  0.66907260  0.59374237     0.13800
H2142       H  0.48296967  0.71888683  0.59185817     0.13800
H2143       H  0.64707095  0.63917141  0.47828261     0.12100
H2144       H  0.64240638  0.63773138  0.53017199     0.12100
H2145       H  0.96242130  0.82586799  0.47138503     0.12100
H2146       H  0.95720670  0.82413620  0.52329043     0.12100
H2147       H  0.54912328  0.72720607  0.47918457     0.25300
H2148       H  0.54561268  0.72620284  0.52267948     0.25300
N2149       N  0.77998074  0.95632947  0.96015526    -0.37400
N2150       N  0.82114722  0.91788263  0.99890279    -0.58000
N2151       N  0.78890564  0.96156992  0.03988118    -0.37400
N2152       N  0.74384484  0.99618038  0.00104347    -0.58000
C2153       C  0.79370769  0.93033416  0.94520005     0.26200
C2154       C  0.75321089  0.97100376  0.94629246     0.26200
C2155       C  0.80561047  0.93684420  0.05450177     0.26200
C2156       C  0.76524708  0.97804014  0.05569417     0.26200
C2157       C  0.83785546  0.90674131  0.97696760     0.34800
C2158       C  0.84197690  0.90857590  0.01934373     0.34800
C2159       C  0.73140088  0.51375410  0.97969832     0.34800
C2160       C  0.73563948  0.51621420  0.02212595     0.34800
C2161       C  0.77542899  0.92840885  0.92153234    -0.22700
C2162       C  0.74987219  0.95410724  0.92220691    -0.22700
C2163       C  0.79269418  0.93790779  0.08002729    -0.22700
C2164       C  0.76728090  0.96386984  0.08077762    -0.22700
C2165       C  0.86914692  0.88966452  0.98345703    -0.23800
C2166       C  0.87174691  0.89076739  0.01041563    -0.23800
C2167       C  0.71528824  0.54485615  0.98730229    -0.23800
C2168       C  0.71791760  0.54639768  0.01426337    -0.23800
C2169       C  0.82427948  0.91049339  0.95129532    -0.19100
C2170       C  0.73352753  0.50125702  0.95363436    -0.19100
C2171       C  0.74292661  0.50682098  0.04847221    -0.19100
C2172       C  0.83372404  0.91480209  0.04597858    -0.19100
H2173       H  0.78048035  0.91082280  0.90521979     0.13800
H2174       H  0.73144891  0.96014720  0.90647875     0.13800
H2175       H  0.80092189  0.92180442  0.09649454     0.13800
H2176       H  0.75216690  0.97157682  0.09791950     0.13800
H2177       H  0.88794977  0.87752374  0.97018604     0.12100
H2178       H  0.89308599  0.87976383  0.02209261     0.12100
H2179       H  0.70276566  0.56423745  0.97476519     0.12100
H2180       H  0.70794389  0.56731889  0.02664993     0.12100
H2181       H  0.79028421  0.96555082  0.97777555     0.25300
H2182       H  0.79489179  0.96825673  0.02063666     0.25300
C2183       C  0.88479946  0.86098531  0.85402472     0.79400
N2184       N  0.86893734  0.83316829  0.84195586    -0.78900
C2185       C  0.87999431  0.82225462  0.81789349     0.81800
N2186       N  0.90705391  0.83921293  0.80577641    -0.78800
C2187       C  0.92286873  0.86712146  0.81756587     0.81900
N2188       N  0.91184616  0.87774523  0.84164303    -0.80600
C2189       C  0.92888062  0.60026354  0.86021887     0.79400
N2190       N  0.94695566  0.57445566  0.84741530    -0.78900
C2191       C  0.93893799  0.56613452  0.82212935     0.81800
N2192       N  0.91346232  0.58450744  0.80921206    -0.78800
C2193       C  0.89422256  0.60928410  0.82200166     0.81900
N2194       N  0.90222974  0.61732601  0.84733697    -0.80600
C2195       C  0.68579236  0.56197585  0.85646774     0.79400
N2196       N  0.70255047  0.58862026  0.84375869    -0.78900
C2197       C  0.69335026  0.59744895  0.81881409     0.81800
N2198       N  0.66710339  0.57953010  0.80639398    -0.78800
C2199       C  0.65048086  0.55255226  0.81872075     0.81900
N2200       N  0.65978723  0.54390991  0.84369298    -0.80600
C2201       C  0.65090636  0.82335439  0.86084216     0.79400
N2202       N  0.67627058  0.80441858  0.84800499    -0.78900
C2203       C  0.68259445  0.80990538  0.82200122     0.81800
N2204       N  0.66288472  0.83381599  0.80858898    -0.78800
C2205       C  0.63873635  0.85389358  0.82139489     0.81900
N2206       N  0.63266628  0.84830748  0.84729248    -0.80600
C2207       C  0.64619289  0.60006240  0.63703747     0.79400
N2208       N  0.67306445  0.61693162  0.64975901    -0.78900
C2209       C  0.68291302  0.60722639  0.67436301     0.81800
N2210       N  0.66507424  0.58103260  0.68667390    -0.78800
C2211       C  0.63930023  0.56285737  0.67381795     0.81900
N2212       N  0.62946176  0.57287785  0.64920227    -0.80600
C2213       C  0.89341523  0.56494159  0.63928058     0.79400
N2214       N  0.92002745  0.54780380  0.65195923    -0.78900
C2215       C  0.93029044  0.55785846  0.67641546     0.81800
N2216       N  0.91367791  0.58505442  0.68846964    -0.78800
C2217       C  0.88656402  0.60187767  0.67620175     0.81900
N2218       N  0.87649338  0.59176770  0.65170446    -0.80600
N2219       N  0.82991551  0.74888181  0.69786088    -0.06900
N2220       N  0.83832253  0.77169643  0.67926517    -0.59100
N2221       N  0.85427634  0.66931160  0.71697977    -0.06600
N2222       N  0.87857741  0.64511238  0.71233757    -0.61200
N2223       N  0.82982416  0.66897519  0.69842214    -0.06200
N2224       N  0.83713622  0.64475268  0.68064301    -0.59000
N2225       N  0.85353485  0.74979386  0.71696907    -0.05900
N2226       N  0.87804290  0.77362841  0.71205815    -0.61500
C2227       C  0.86808698  0.78723630  0.68865384     0.95200
C2228       C  0.86747687  0.63005409  0.68968639     0.95000
N2229       N  0.83104721  0.66958593  0.79809772    -0.07100
N2230       N  0.84030228  0.64685683  0.81657090    -0.59600
N2231       N  0.85300566  0.75032839  0.77910383    -0.05200
N2232       N  0.87532671  0.77658412  0.78299892    -0.60900
N2233       N  0.82869498  0.74982737  0.79766437    -0.07200
N2234       N  0.83403168  0.77556269  0.81463586    -0.59900
N2235       N  0.85451228  0.66944132  0.77895771    -0.04900
N2236       N  0.87965858  0.64616974  0.78367833    -0.61000
Mn2237     Mn  0.85466368  0.70973575  0.74806149     1.18400
C2238       C  0.87032680  0.63207582  0.80700366     0.97300
C2239       C  0.86309413  0.79203439  0.80517027     0.98000
N2240       N  0.74512148  0.66858205  0.69819923    -0.07200
N2241       N  0.73632078  0.64548826  0.67982989    -0.63500
N2242       N  0.72154028  0.74910902  0.71719593    -0.06000
N2243       N  0.69864200  0.77489250  0.71330937    -0.64200
N2244       N  0.74584386  0.74911448  0.69862585    -0.06700
N2245       N  0.73993372  0.77475707  0.68167711    -0.63700
N2246       N  0.72168628  0.66805925  0.71734758    -0.05600
N2247       N  0.69706185  0.64419410  0.71275495    -0.64400
Mn2248     Mn  0.78758075  0.70879947  0.69751846     1.10700
C2249       C  0.70668905  0.63004412  0.68950302     0.98500
C2250       C  0.71048798  0.79062100  0.69113866     0.98600
N2251       N  0.74462077  0.74812040  0.79838367    -0.06700
N2252       N  0.73566928  0.77093035  0.81688559    -0.62100
N2253       N  0.72227338  0.66759655  0.77912184    -0.06000
N2254       N  0.69938939  0.64189084  0.78320390    -0.58800
N2255       N  0.74669290  0.66788446  0.79769315    -0.07300
N2256       N  0.74076973  0.64263494  0.81492882    -0.61600
N2257       N  0.72108757  0.74848267  0.77921813    -0.06300
N2258       N  0.69612761  0.77192130  0.78396328    -0.58800
Mn2259     Mn  0.78780164  0.70881412  0.79873663     1.20200
Mn2260     Mn  0.72078790  0.70833584  0.74818971     1.10100
Cl2261     Cl  0.78772461  0.70888920  0.74811889    -0.86800
C2262       C  0.70565115  0.78587496  0.80735221     0.95600
C2263       C  0.71132050  0.62658939  0.80554389     0.95300
C2264       C  0.92205329  0.82608918  0.63542990     0.79400
N2265       N  0.93891531  0.85219092  0.64881730    -0.78900
C2266       C  0.93188350  0.85807144  0.67457619     0.81800
N2267       N  0.90839289  0.83714275  0.68728279    -0.78800
C2268       C  0.89022292  0.81198938  0.67396488     0.81900
N2269       N  0.89746588  0.80613802  0.64814499    -0.80600
C2270       C  0.68671227  0.85885107  0.64213972     0.79400
N2271       N  0.70362178  0.83171395  0.65430879    -0.78900
C2272       C  0.69249308  0.82015951  0.67822415     0.81800
N2273       N  0.66429605  0.83577674  0.69003703    -0.78800
C2274       C  0.64741790  0.86293372  0.67808483     0.81900
N2275       N  0.65860135  0.87421365  0.65422231    -0.80600
N2276       N  0.99508875  0.91915165  0.79746761    -0.06900
N2277       N  0.96907073  0.91375109  0.81436497    -0.59100
N2278       N  0.57635608  0.89220745  0.77896519    -0.06600
N2279       N  0.59999995  0.86734033  0.78345995    -0.61200
N2280       N  0.57666384  0.91559915  0.79804249    -0.06200
N2281       N  0.60018014  0.90669681  0.81620190    -0.59000
N2282       N  0.99453206  0.89508950  0.77885538    -0.05900
N2283       N  0.96807583  0.87296925  0.78255700    -0.61500
C2284       C  0.95246724  0.88495029  0.80468684     0.95200
C2285       C  0.61488097  0.87689505  0.80655770     0.95000
N2286       N  0.57663928  0.91653218  0.69855294    -0.07100
N2287       N  0.60214168  0.91007077  0.68148932    -0.59600
N2288       N  0.99438735  0.89471968  0.71743445    -0.05200
N2289       N  0.96955522  0.87105351  0.71293995    -0.60900
N2290       N  0.99532932  0.91800258  0.69833414    -0.07200
N2291       N  0.97151591  0.91009571  0.68010001    -0.59900
N2292       N  0.57620204  0.89237574  0.71706902    -0.04900
N2293       N  0.60159315  0.86903431  0.71307367    -0.61000
Mn2294     Mn  0.53551790  0.89273881  0.74816288     1.18400
C2295       C  0.61748428  0.88049158  0.69084949     0.97300
C2296       C  0.95527567  0.88110992  0.68978226     0.98000
N2297       N  0.57981297  0.49887594  0.79763397    -0.07200
N2298       N  0.60529919  0.50490970  0.81495960    -0.63500
N2299       N  0.99887291  0.52573920  0.77907453    -0.06000
N2300       N  0.97609642  0.55122986  0.78389373    -0.64200
N2301       N  0.99878459  0.50257632  0.79828122    -0.06700
N2302       N  0.97634879  0.51233383  0.81689973    -0.63700
N2303       N  0.58042715  0.52271566  0.77889552    -0.05600
N2304       N  0.60645140  0.54526739  0.78290569    -0.64400
Mn2305     Mn  0.53777232  0.95908075  0.79877524     1.10700
C2306       C  0.62172632  0.53380627  0.80536381     0.98500
C2307       C  0.96203652  0.54239611  0.80735015     0.98600
N2308       N  0.99774149  0.50132094  0.69847330    -0.06700
N2309       N  0.97314604  0.50871333  0.68081822    -0.62100
N2310       N  0.57973005  0.52322208  0.71728616    -0.06000
N2311       N  0.60347456  0.54776439  0.71245943    -0.58800
N2312       N  0.57845943  0.50031220  0.69790460    -0.07300
N2313       N  0.60087552  0.50951121  0.67908468    -0.61600
N2314       N  0.99835805  0.52538760  0.71707998    -0.06300
N2315       N  0.97400792  0.54960360  0.71256315    -0.58800
Mn2316     Mn  0.53716153  0.95895556  0.69758735     1.20200
Mn2317     Mn  0.53938800  0.52502814  0.74815631     1.10100
Cl2318     Cl  0.53751847  0.95895726  0.74817178    -0.86800
C2319       C  0.95854646  0.53875730  0.68995449     0.95600
C2320       C  0.61671907  0.53879669  0.68878955     0.95300
C2321       C  0.74042388  0.54499629  0.91833469    -0.27100
C2322       C  0.71794077  0.52220792  0.93198707    -0.15200
C2323       C  0.68354253  0.51553619  0.92245342     0.35400
C2324       C  0.67289891  0.53060664  0.89847328    -0.26600
C2325       C  0.69627707  0.55164949  0.88364375    -0.15800
C2326       C  0.73007513  0.55998302  0.89432000     0.36500
N2327       N  0.75464887  0.58190571  0.88025723    -0.90100
H2328       H  0.76691383  0.54975073  0.92593044     0.17600
H2329       H  0.64669281  0.52467206  0.89085072     0.17600
N2330       N  0.66053489  0.99308548  0.93691120    -0.89100
H2331       H  0.77928267  0.58259838  0.88977682     0.35000
H2332       H  0.74481424  0.60758582  0.88095130     0.40100
H2333       H  0.67149437  0.96783762  0.93669785     0.39700
H2334       H  0.63596745  0.99125371  0.92738774     0.34600
C2335       C  0.86581747  0.91734870  0.91443331    -0.27100
C2336       C  0.84385610  0.89494208  0.92891394    -0.15200
C2337       C  0.83741385  0.86044340  0.91984456     0.35400
C2338       C  0.85174838  0.84990040  0.89569376    -0.26600
C2339       C  0.87240559  0.87289618  0.88033063    -0.15800
C2340       C  0.88004489  0.90694947  0.89019141     0.36500
N2341       N  0.90093122  0.93147679  0.87527657    -0.90100
H2342       H  0.87039052  0.94384255  0.92154334     0.17600
H2343       H  0.84607725  0.82356531  0.88873213     0.17600
N2344       N  0.81547130  0.83598928  0.93397844    -0.89100
H2345       H  0.90513839  0.95464605  0.88591669     0.35000
H2346       H  0.88609863  0.93851577  0.85868426     0.40100
H2347       H  0.80607827  0.84671685  0.95152865     0.39700
H2348       H  0.83143320  0.81461715  0.93922829     0.34600
C2349       C  0.59726013  0.61462917  0.57200697    -0.27100
C2350       C  0.59641125  0.65149537  0.57102867    -0.15200
C2351       C  0.61323719  0.67109749  0.59098086     0.35400
C2352       C  0.62998756  0.65346184  0.61181394    -0.26600
C2353       C  0.63034435  0.61651586  0.61325336    -0.15800
C2354       C  0.61388951  0.59696446  0.59287041     0.36500
N2355       N  0.61425377  0.55932563  0.59244975    -0.90100
H2356       H  0.58461673  0.59951662  0.55652362     0.17600
H2357       H  0.64212545  0.66881783  0.62737710     0.17600
N2358       N  0.61290431  0.70888216  0.59008317    -0.89100
H2359       H  0.59984699  0.54992818  0.60849184     0.35000
H2360       H  0.64056349  0.55078432  0.59401777     0.40100
H2361       H  0.62726996  0.71661484  0.57349530     0.39700
H2362       H  0.62608543  0.71941914  0.60640674     0.34600
C2363       C  0.93304454  0.77853138  0.56997741    -0.27100
C2364       C  0.96977312  0.78198083  0.56628081    -0.15200
C2365       C  0.98971627  0.80339608  0.58337967     0.35400
C2366       C  0.97282430  0.81965470  0.60470222    -0.26600
C2367       C  0.93646532  0.81438008  0.60967482    -0.15800
C2368       C  0.91610398  0.79456899  0.59156490     0.36500
N2369       N  0.87854904  0.79035452  0.59538146    -0.90100
H2370       H  0.91785748  0.76241888  0.55644192     0.17600
H2371       H  0.98874716  0.83486657  0.61834589     0.17600
N2372       N  0.02718929  0.80811013  0.57920686    -0.89100
H2373       H  0.86758345  0.77495101  0.58038267     0.35000
H2374       H  0.86691767  0.81522360  0.59380020     0.40100
H2375       H  0.03967123  0.78398726  0.58254792     0.39700
H2376       H  0.03774826  0.82561240  0.59303200     0.34600
C2377       C  0.65499197  0.78317471  0.89974624    -0.27100
C2378       C  0.63823404  0.81187530  0.88735024    -0.15200
C2379       C  0.60681019  0.82574364  0.89881156     0.35400
C2380       C  0.59117889  0.80831625  0.92017477    -0.26600
C2381       C  0.60661087  0.77822590  0.93103802    -0.15800
C2382       C  0.63971718  0.76632741  0.92148299     0.36500
N2383       N  0.65815782  0.73693431  0.93290597    -0.90100
H2384       H  0.67953517  0.77268205  0.89191599     0.17600
H2385       H  0.56626210  0.81778506  0.92812152     0.17600
N2386       N  0.59005582  0.85671206  0.88836192    -0.89100
H2387       H  0.65862677  0.71680113  0.91890412     0.35000
H2388       H  0.64496728  0.72710055  0.94936061     0.40100
H2389       H  0.60724983  0.87782553  0.89172717     0.39700
H2390       H  0.56662743  0.86244056  0.89849571     0.34600
C2391       C  0.93097465  0.64805268  0.89385050    -0.27100
C2392       C  0.94252817  0.61456180  0.88566045    -0.15200
C2393       C  0.96962789  0.59755470  0.90031557     0.35400
C2394       C  0.98597542  0.61538893  0.92132576    -0.26600
C2395       C  0.97558878  0.64947121  0.92827966    -0.15800
C2396       C  0.94715775  0.66571954  0.91482860     0.36500
N2397       N  0.93414123  0.70008037  0.92170918    -0.90100
H2398       H  0.90998033  0.66149267  0.88328851     0.17600
H2399       H  0.00734153  0.60290074  0.93216290     0.17600
N2400       N  0.98086632  0.56253640  0.89372146    -0.89100
H2401       H  0.93919402  0.71680882  0.90584606     0.35000
H2402       H  0.94741440  0.71061590  0.93793134     0.40100
H2403       H  0.95943839  0.54572594  0.89722823     0.39700
H2404       H  0.00144215  0.55430409  0.90611741     0.34600
C2405       C  0.84588024  0.56070607  0.60549483    -0.27100
C2406       C  0.88084660  0.55272716  0.61314372    -0.15200
C2407       C  0.90216883  0.53179018  0.59637168     0.35400
C2408       C  0.88720722  0.51754332  0.57338626    -0.26600
C2409       C  0.85174611  0.52410807  0.56673745    -0.15800
C2410       C  0.83103417  0.54662231  0.58261648     0.36500
N2411       N  0.79475992  0.55526333  0.57644841    -0.90100
H2412       H  0.82926231  0.57701963  0.61787211     0.17600
H2413       H  0.90284043  0.50028336  0.56100920     0.17600
N2414       N  0.93866803  0.52467946  0.60278865    -0.89100
H2415       H  0.77870294  0.54409705  0.59096509     0.35000
H2416       H  0.78668377  0.54466098  0.55847462     0.40100
H2417       H  0.95237386  0.54855426  0.60204316     0.39700
H2418       H  0.95021337  0.50834954  0.58863553     0.34600
C2419       C  0.70574128  0.91786864  0.58323176    -0.27100
C2420       C  0.72673846  0.89578767  0.56766502    -0.15200
C2421       C  0.73281859  0.86073805  0.57572670     0.35400
C2422       C  0.71878041  0.84919555  0.59975462    -0.26600
C2423       C  0.69907332  0.87179761  0.61609374    -0.15800
C2424       C  0.69222851  0.90658406  0.60748284     0.36500
N2425       N  0.67312494  0.93097679  0.62380607    -0.90100
H2426       H  0.70165464  0.94484383  0.57706095     0.17600
H2427       H  0.72397970  0.82241546  0.60589988     0.17600
N2428       N  0.75425302  0.83670586  0.56075655    -0.89100
H2429       H  0.66982542  0.95509436  0.61424537     0.35000
H2430       H  0.68879757  0.93598341  0.64039548     0.40100
H2431       H  0.76354657  0.84815541  0.54344858     0.39700
H2432       H  0.73797201  0.81577710  0.55505478     0.34600
C2433       C  0.72865902  0.56705391  0.10747960    -0.27100
C2434       C  0.69231720  0.56182705  0.11268107    -0.15200
C2435       C  0.67249473  0.54019956  0.09549025     0.35400
C2436       C  0.68941269  0.52331695  0.07436140    -0.26600
C2437       C  0.72589415  0.52761138  0.06986172    -0.15800
C2438       C  0.74564983  0.55033365  0.08638681     0.36500
N2439       N  0.78282613  0.55714518  0.08242165    -0.90100
H2440       H  0.74448273  0.58353649  0.12034598     0.17600
H2441       H  0.67407663  0.50620166  0.06162011     0.17600
N2442       N  0.63516797  0.53529609  0.09931843    -0.89100
H2443       H  0.79665757  0.54612069  0.09825077     0.35000
H2444       H  0.79239195  0.54527412  0.06534468     0.40100
H2445       H  0.63042785  0.50840978  0.10169466     0.39700
H2446       H  0.62203053  0.54354004  0.08226088     0.34600
C2447       C  0.64485484  0.65805891  0.39497949    -0.27100
C2448       C  0.63041384  0.62643456  0.38524528    -0.15200
C2449       C  0.60692126  0.60719967  0.40143355     0.35400
C2450       C  0.59585510  0.62146956  0.42550431    -0.26600
C2451       C  0.60780389  0.65455692  0.43375076    -0.15800
C2452       C  0.63382074  0.67234889  0.41893283     0.36500
N2453       N  0.64863334  0.70545960  0.42710762    -0.90100
H2454       H  0.66379864  0.67286528  0.38343701     0.17600
H2455       H  0.57603265  0.60771022  0.43699180     0.17600
N2456       N  0.59345281  0.57367733  0.39336536    -0.89100
H2457       H  0.63992619  0.72463134  0.41385532     0.35000
H2458       H  0.63971133  0.71285393  0.44573221     0.40100
H2459       H  0.56574575  0.57522917  0.39265305     0.39700
H2460       H  0.60039191  0.55521239  0.40770780     0.34600
C2461       C  0.84415292  0.57167624  0.39272210    -0.27100
C2462       C  0.88023385  0.56618180  0.38676640    -0.15200
C2463       C  0.90038305  0.54372458  0.40321681     0.35400
C2464       C  0.88393453  0.52637607  0.42435675    -0.26600
C2465       C  0.84753890  0.53056721  0.42918289    -0.15800
C2466       C  0.82770759  0.55379591  0.41350033     0.36500
N2467       N  0.79100673  0.05727800  0.41785854    -0.90100
H2468       H  0.82796879  0.58854258  0.38041409     0.17600
H2469       H  0.89939069  0.50872035  0.43657342     0.17600
N2470       N  0.93738815  0.53801981  0.39837468    -0.89100
H2471       H  0.77675743  0.55149619  0.40121468     0.35000
H2472       H  0.78602870  0.08389819  0.42136664     0.40100
H2473       H  0.94129725  0.51111543  0.39531353     0.39700
H2474       H  0.95150043  0.54528984  0.41525794     0.34600
C2475       C  0.64397006  0.78729110  0.10099525    -0.27100
C2476       C  0.62139667  0.80873583  0.11617053    -0.15200
C2477       C  0.58708922  0.81684060  0.10635098     0.35400
C2478       C  0.57605536  0.80246225  0.08228159    -0.26600
C2479       C  0.59796478  0.77964258  0.06810371    -0.15800
C2480       C  0.63265578  0.77246656  0.07720504     0.36500
N2481       N  0.65637878  0.74903064  0.06363674    -0.90100
H2482       H  0.67044394  0.78108537  0.10796980     0.17600
H2483       H  0.54934087  0.80741485  0.07520335     0.17600
N2484       N  0.56283476  0.83817299  0.12123518    -0.89100
H2485       H  0.67848577  0.76367803  0.05781936     0.35000
H2486       H  0.64504908  0.73900740  0.04645298     0.40100
H2487       H  0.55566232  0.82386672  0.13795557     0.39700
H2488       H  0.53937614  0.84251327  0.11068182     0.34600
C2489       C  0.94648611  0.67122603  0.07926495    -0.27100
C2490       C  0.97120985  0.65041700  0.06593607    -0.15200
C2491       C  0.98028270  0.61712386  0.07586351     0.35400
C2492       C  0.96583075  0.60605928  0.09995180    -0.26600
C2493       C  0.94255307  0.62777413  0.11434723    -0.15800
C2494       C  0.93210357  0.66036678  0.10330046     0.36500
N2495       N  0.90820348  0.68341254  0.11680788    -0.90100
H2496       H  0.93980152  0.69701046  0.07165266     0.17600
H2497       H  0.97369647  0.58078295  0.10782801     0.17600
N2498       N  0.50600809  0.59615639  0.06255761    -0.89100
H2499       H  0.88645484  0.68820746  0.10449897     0.35000
H2500       H  0.92120443  0.70729767  0.12011946     0.40100
H2501       H  0.49463898  0.58909504  0.04453372     0.39700
H2502       H  0.51057379  0.57277499  0.07281905     0.34600
C2503       C  0.70957918  0.85081515  0.40019269    -0.27100
C2504       C  0.68220249  0.86915341  0.38714206    -0.15200
C2505       C  0.67137721  0.90218607  0.39735824     0.35400
C2506       C  0.68982141  0.91715887  0.41855295    -0.26600
C2507       C  0.71848669  0.89974258  0.43017457    -0.15800
C2508       C  0.72769917  0.86575888  0.42168224     0.36500
N2509       N  0.75635603  0.84726191  0.43426207    -0.90100
H2510       H  0.71784973  0.82527435  0.39305339     0.17600
H2511       H  0.68227689  0.94300463  0.42558092     0.17600
N2512       N  0.64253757  0.92139925  0.38587256    -0.89100
H2513       H  0.76026575  0.82277793  0.42537972     0.35000
H2514       H  0.74874588  0.84225637  0.45366727     0.40100
H2515       H  0.65216921  0.94573876  0.37955194     0.39700
H2516       H  0.62358047  0.92592648  0.40048223     0.34600
C2517       C  0.89550728  0.90200026  0.10406613    -0.27100
C2518       C  0.88855027  0.86679562  0.11082387    -0.15200
C2519       C  0.86705876  0.84636102  0.09391926     0.35400
C2520       C  0.85095043  0.86206217  0.07193095    -0.26600
C2521       C  0.85597251  0.89784588  0.06648357    -0.15800
C2522       C  0.87956509  0.91773613  0.08219429     0.36500
N2523       N  0.88743830  0.95404533  0.07689345    -0.90100
H2524       H  0.91218279  0.91819746  0.11653548     0.17600
H2525       H  0.83329111  0.84661538  0.05965357     0.17600
N2526       N  0.86102583  0.80987776  0.09919109    -0.89100
H2527       H  0.87627431  0.96906854  0.09199205     0.35000
H2528       H  0.87614222  0.96258750  0.05926199     0.40100
H2529       H  0.86961552  0.79544393  0.08289324     0.39700
H2530       H  0.83367848  0.80599852  0.10117935     0.34600
C2531       C  0.98196501  0.82077562  0.39015803    -0.27100
C2532       C  0.94779433  0.80967381  0.38248061    -0.15200
C2533       C  0.92867420  0.78707160  0.39935341     0.35400
C2534       C  0.94482612  0.77432588  0.42232966    -0.26600
C2535       C  0.97958205  0.78399466  0.42901498    -0.15800
C2536       C  0.99802282  0.80835424  0.41317186     0.36500
N2537       N  0.53314168  0.82106719  0.41987616    -0.90100
H2538       H  0.99695051  0.83867063  0.37788721     0.17600
H2539       H  0.93056608  0.75585544  0.43462210     0.17600
N2540       N  0.89294122  0.77691838  0.39337047    -0.89100
H2541       H  0.55062718  0.81148223  0.40562957     0.35000
H2542       H  0.54182191  0.81154283  0.43803040     0.40100
H2543       H  0.87675961  0.78477238  0.40899585     0.39700
H2544       H  0.89202544  0.74949550  0.39218344     0.34600
loop_ 
_geom_bond_atom_site_label_1 
_geom_bond_atom_site_label_2 
_geom_bond_distance 
_geom_bond_site_symmetry_2 
_ccdc_geom_bond_type 
C1            N2   1.361       .  A
C1            N6   1.358       .  A
C1          C624   1.488       .  S
N2            C3   1.360       .  A
C3            N4   1.357       .  A
C3          C102   1.465       .  S
N4            C5   1.355       .  A
C5            N6   1.354       .  A
C5           C45   1.463       .  S
C7            N8   1.361       .  A
C7           N12   1.360       .  A
C7          C610   1.487       .  S
N8            C9   1.358       .  A
C9           N10   1.356       .  A
C9          C114   1.462       .  S
N10          C11   1.355       .  A
C11          N12   1.355       .  A
C11          C33   1.460       .  S
C13          N14   1.362       .  A
C13          N18   1.358       .  A
C13         C596   1.493       .  S
N14          C15   1.358       .  A
C15          N16   1.357       .  A
C15         C103   1.463       .  S
N16          C17   1.356       .  A
C17          N18   1.354       .  A
C17          C68   1.461       .  S
C19          N20   1.359       .  A
C19          N24   1.361       .  A
C19         C585   1.491       .  S
N20          C21   1.356       .  A
C21          N22   1.355       .  A
C21         C137   1.462       .  S
N22          C23   1.356       .  A
C23          N24   1.358       .  A
C23          C34   1.463       .  S
N25          N26   1.322       .  A
N25        N1303   1.316       .  A
N25         Mn54   2.207   1_655  S
N26        C1305   1.354       .  A
N27        N1301   1.317       .  A
N27         N664   1.320       .  A
N27         Mn43   2.206       .  S
N28          C34   1.352       .  A
N28         N663   1.320       .  A
N29        N1299   1.317       .  A
N29         N666   1.320       .  A
N29         Mn54   2.194   1_655  S
N30        C1306   1.351       .  A
N30         N665   1.320       .  A
N31          N32   1.318       .  A
N31        N1297   1.316       .  A
N31         Mn43   2.194       .  S
N32          C33   1.350       .  A
C33        N1298   1.353       .  A
C34        N1302   1.351       .  A
N35        N1313   1.316       .  A
N35         N672   1.323       .  A
N35         Mn65   2.208   1_655  S
N36        C1316   1.354       .  A
N36         N671   1.323       .  A
N37          N38   1.321       .  A
N37        N1311   1.316       .  A
N37         Mn43   2.204       .  S
N38          C45   1.352       .  A
N39          N40   1.319       .  A
N39        N1309   1.316       .  A
N39         Mn65   2.193   1_655  S
N40        C1317   1.351       .  A
N41        N1307   1.316       .  A
N41         N678   1.319       .  A
N41         Mn43   2.200       .  S
N42          C44   1.350       .  A
N42         N677   1.319       .  A
Mn43      Cl1339   2.523       .  S
C44        N1308   1.354       .  A
C44          C80   1.464       .  S
C45        N1312   1.352       .  A
N46         N683   1.325       .  A
N46         N688   1.316       .  A
N46         Mn54   2.217       .  S
N47          C55   1.355       .  A
N47         N682   1.325       .  A
N48          N50   1.315       .  A
N48          N49   1.321       .  A
N48         Mn66   2.209       .  S
N49          C56   1.353       .  A
N50          N51   1.320       .  A
N50         Mn54   2.192       .  S
N51          C56   1.351       .  A
N52          N53   1.319       .  A
N52         N682   1.316       .  A
N52        Mn702   2.200   1_545  S
N53          C55   1.350       .  A
Mn54        Cl67   2.571       .  S
C55          C90   1.469       .  S
C56          C72   1.465       .  S
N57          N58   1.322       .  A
N57          N63   1.316       .  A
N57         Mn65   2.206       .  S
N58          C68   1.354       .  A
N59          N60   1.319       .  A
N59         N697   1.317       .  A
N59        Mn702   2.208   1_545  S
N60          C69   1.352       .  A
N61         N695   1.317       .  A
N61         N698   1.321       .  A
N61         Mn65   2.197       .  S
N62          C69   1.352       .  A
N62         N697   1.321       .  A
N63          N64   1.318       .  A
N63         Mn66   2.193       .  S
N64          C68   1.349       .  A
Mn65        Cl67   2.571       .  S
Mn66        N688   2.199       .  S
Mn66        N695   2.209       .  S
Mn66        Cl67   2.520       .  S
Cl67      Mn1315   2.522   1_455  S
C69          C84   1.465       .  S
C70          N71   1.359       .  A
C70          N75   1.359       .  A
C70         C568   1.488       .  S
N71          C72   1.357       .  A
C72          N73   1.356       .  A
N73          C74   1.357       .  A
C74          N75   1.356       .  A
C74         C113   1.463       .  S
C76          N77   1.363       .  A
C76          N81   1.361       .  A
C76         C554   1.491       .  S
N77          C78   1.358       .  A
C78          N79   1.356       .  A
C78         C125   1.465       .  S
N79          C80   1.356       .  A
C80          N81   1.358       .  A
C82          N83   1.361       .  A
C82          N87   1.357       .  A
C82         C540   1.489       .  S
N83          C84   1.360       .  A
C84          N85   1.357       .  A
N85          C86   1.355       .  A
C86          N87   1.353       .  A
C86         C124   1.460       .  S
C88          N89   1.363       .  A
C88          N93   1.362       .  A
C88         C526   1.492       .  S
N89          C90   1.360       .  A
C90          N91   1.357       .  A
N91          C92   1.357       .  A
C92          N93   1.357       .  A
C92         C138   1.465       .  S
N94          N95   1.321       .  A
N94         N100   1.316       .  A
N94        Mn123   2.197       .  S
N95         C102   1.352       .  A
N96          N98   1.316       .  A
N96          N97   1.318       .  A
N96        Mn112   2.191       .  S
N97         C103   1.349       .  A
N98          N99   1.323       .  A
N98        Mn123   2.210       .  S
N99         C103   1.354       .  A
N100        N101   1.319       .  A
N100       Mn112   2.206       .  S
N101        C102   1.352       .  A
N104        N110   1.317       .  A
N104        N105   1.320       .  A
N104       Mn134   2.201       .  S
N105        C113   1.353       .  A
N106        N107   1.318       .  A
N106        N108   1.316       .  A
N106       Mn112   2.192       .  S
N107        C114   1.349       .  A
N108        N109   1.323       .  A
N108       Mn134   2.209       .  S
N109        C114   1.353       .  A
N110        N111   1.319       .  A
N110       Mn112   2.202       .  S
N111        C113   1.351       .  A
Mn112      Cl136   2.520       .  S
N115        N116   1.319       .  A
N115        N121   1.316       .  A
N115       Mn123   2.195       .  S
N116        C124   1.352       .  A
N117        N119   1.316       .  A
N117        N118   1.318       .  A
N117       Mn135   2.194       .  S
N118        C125   1.349       .  A
N119        N120   1.324       .  A
N119       Mn123   2.211       .  S
N120        C125   1.355       .  A
N121        N122   1.320       .  A
N121       Mn135   2.199       .  S
N122        C124   1.351       .  A
Mn123      Cl136   2.573       .  S
N126        N127   1.320       .  A
N126        N132   1.316       .  A
N126       Mn134   2.198       .  S
N127        C137   1.352       .  A
N128        N129   1.317       .  A
N128        N130   1.316       .  A
N128       Mn135   2.190       .  S
N129        C138   1.348       .  A
N130        N131   1.324       .  A
N130       Mn134   2.215       .  S
N131        C138   1.356       .  A
N132        N133   1.319       .  A
N132       Mn135   2.201       .  S
N133        C137   1.351       .  A
Mn134      Cl136   2.573       .  S
Mn135      Cl136   2.518       .  S
N139        C144   1.350       .  A
N139        C143   1.352       .  A
N139        H171   1.033       .  S
N140        C147   1.351       .  A
N140        C148   1.348       .  A
N141        C146   1.355       .  A
N141        C145   1.354       .  A
N141        H172   1.035       .  S
N142        C785   1.350       .  A
N142        C786   1.351       .  A
C143        C151   1.388       .  A
C143        C159   1.415       .  A
C144        C152   1.388       .  A
C144        C796   1.414       .  A
C145        C153   1.388       .  A
C145        C162   1.419       .  A
C146        C154   1.387       .  A
C146        C797   1.420       .  A
C147        C159   1.411       .  A
C147        C155   1.385       .  A
C148        C162   1.411       .  A
C148        C156   1.387       .  A
C149        N778   1.350   1_545  A
C149        C157   1.385       .  A
C149        C160   1.410       .  A
C150        N778   1.350   1_545  A
C150        C158   1.386       .  A
C150        C161   1.412       .  A
C151        C152   1.373       .  A
C151        H163   1.082       .  S
C152        H164   1.082       .  S
C153        C154   1.376       .  A
C153        H165   1.082       .  S
C154        H166   1.082       .  S
C155        C156   1.374       .  A
C155        H167   1.082       .  S
C156        H168   1.082       .  S
C157        C158   1.374       .  A
C157        H169   1.082       .  S
C158        H170   1.082       .  S
C159        C512   1.484       .  S
C160        C501   1.479       .  S
C160        C780   1.412   1_545  A
C161        C557   1.490       .  S
C161        C782   1.419   1_545  A
C162        C599   1.482       .  S
N173        C178   1.350       .  A
N173        C177   1.351       .  A
N173        H205   1.037       .  S
N174        C181   1.351   1_556  A
N174        C182   1.348       .  A
N175        C180   1.355       .  A
N175        C179   1.353       .  A
N175        H206   1.035       .  S
N176        C183   1.348   1_556  A
N176        C184   1.348       .  A
C177        C185   1.387       .  A
C177       C1465   1.411   1_455  A
C178        C194   1.411       .  A
C178        C186   1.387       .  A
C179        C187   1.387       .  A
C179       C1468   1.419   1_455  A
C180        C195   1.420       .  A
C180        C188   1.388       .  A
C181        C193   1.409       .  A
C181        C189   1.384       .  A
C182        C196   1.413       .  A
C182        C190   1.388       .  A
C183        C191   1.385       .  A
C183        C194   1.408       .  A
C184        C192   1.387       .  A
C184        C195   1.411       .  A
C185        C186   1.371       .  A
C185        H197   1.082       .  S
C186        H198   1.082       .  S
C187        C188   1.376       .  A
C187        H199   1.082       .  S
C188        H200   1.082       .  S
C189        C190   1.374   1_554  A
C189        H201   1.082       .  S
C190        H202   1.082       .  S
C191        C192   1.374   1_554  A
C191        H203   1.082       .  S
C192        H204   1.082       .  S
C193        C582   1.482       .  S
C193       C1449   1.411       .  A
C194        C571   1.478       .  S
C195        C473   1.486       .  S
C196        C487   1.483       .  S
C196       C1451   1.419       .  A
N207        C212   1.353       .  A
N207        C211   1.352       .  A
N207        H239   1.035       .  S
N208        C215   1.349       .  A
N208        C216   1.350       .  A
N209        C214   1.353       .  A
N209        C213   1.354       .  A
N209        H240   1.037       .  S
N210       C1489   1.349       .  A
N210       C1490   1.349       .  A
C211        C219   1.388       .  A
C211        C227   1.415       .  A
C212        C220   1.387       .  A
C212       C1500   1.414   1_455  A
C213        C221   1.386       .  A
C213        C230   1.417       .  A
C214        C222   1.387       .  A
C214       C1501   1.416   1_455  A
C215        C227   1.408       .  A
C215        C223   1.385       .  A
C216        C230   1.412       .  A
C216        C224   1.387       .  A
C217       N1482   1.349       .  A
C217        C225   1.385       .  A
C217        C228   1.409       .  A
C218       N1482   1.349       .  A
C218        C226   1.386       .  A
C218        C229   1.410       .  A
C219        C220   1.372       .  A
C219        H231   1.082       .  S
C220        H232   1.082       .  S
C221        C222   1.377       .  A
C221        H233   1.082       .  S
C222        H234   1.082   1_455  S
C223        C224   1.374       .  A
C223        H235   1.082       .  S
C224        H236   1.082       .  S
C225        C226   1.375       .  A
C225        H237   1.082       .  S
C226        H238   1.082       .  S
C227        C543   1.480       .  S
C228        C627   1.482       .  S
C228       C1484   1.414       .  A
C229        C456   1.486       .  S
C229       C1486   1.416       .  A
C230        C442   1.490       .  S
N241        C246   1.350       .  A
N241        C245   1.351       .  A
N241        H273   1.037       .  S
N242        C249   1.350       .  A
N242        C250   1.348   1_556  A
N243        C248   1.355       .  A
N243        C247   1.354       .  A
N243        H274   1.036       .  S
N244        C887   1.351   1_554  A
N244        C888   1.350       .  A
C245        C253   1.387       .  A
C245        C261   1.411       .  A
C246        C254   1.388       .  A
C246        C898   1.412       .  A
C247        C255   1.388       .  A
C247        C264   1.420       .  A
C248        C256   1.387       .  A
C248        C899   1.420       .  A
C249        C261   1.409       .  A
C249        C257   1.385       .  A
C250        C264   1.411       .  A
C250        C258   1.387       .  A
C251        N880   1.351   1_546  A
C251        C259   1.385       .  A
C251        C262   1.410       .  A
C252        N880   1.350   1_545  A
C252        C260   1.387       .  A
C252        C263   1.413       .  A
C253        C254   1.373       .  A
C253        H265   1.082       .  S
C254        H266   1.082       .  S
C255        C256   1.376       .  A
C255        H267   1.082       .  S
C256        H268   1.082       .  S
C257        C258   1.374   1_556  A
C257        H269   1.082       .  S
C258        H270   1.082       .  S
C259        C260   1.375   1_556  A
C259        H271   1.082       .  S
C260        H272   1.082       .  S
C261        C428   1.481       .  S
C262        C414   1.480       .  S
C262        C882   1.412   1_545  A
C263        C529   1.490       .  S
C263        C884   1.419   1_545  A
C264        C613   1.485       .  S
C275        N276   1.361       .  A
C275        N280   1.358       .  A
C275        C431   1.488       .  S
N276        C277   1.358       .  A
C277        N278   1.356       .  A
C277        C331   1.464       .  S
N278        C279   1.356       .  A
C279        N280   1.355       .  A
C279        C376   1.462       .  S
C281        N282   1.361       .  A
C281        N286   1.362       .  A
C281        C484   1.493       .  S
N282        C283   1.357       .  A
C283        N284   1.356       .  A
C283        C399   1.462       .  S
N284        C285   1.356       .  A
C285        N286   1.357       .  A
C285        C330   1.464       .  S
C287        N288   1.359       .  A
C287        N292   1.361       .  A
C287        C417   1.489       .  S
N288        C289   1.356       .  A
C289        N290   1.355       .  A
C289        C355   1.465       .  S
N290        C291   1.357       .  A
C291        N292   1.358       .  A
C291        C398   1.464       .  S
C293        N294   1.364       .  A
C293        N298   1.359       .  A
C293        C470   1.496       .  S
N294        C295   1.360       .  A
C295        N296   1.357       .  A
C295        C354   1.465       .  S
N296        C297   1.355       .  A
C297        N298   1.354       .  A
C297        C377   1.463       .  S
C299        N300   1.361       .  A
C299        N304   1.361       .  A
C299        C445   1.486       .  S
N300        C301   1.355       .  A
C301        N302   1.356       .  A
C301        C341   1.465       .  S
N302        C303   1.358       .  A
C303        N304   1.359       .  A
C303        C412   1.465       .  S
C305        N306   1.357       .  A
C305        N310   1.359       .  A
C305        C498   1.484       .  S
N306        C307   1.356       .  A
C307        N308   1.356       .  A
C307        C411   1.460       .  S
N308        C309   1.356       .  A
C309        N310   1.356       .  A
C309        C320   1.461       .  S
N311        N312   1.323       .  A
N311        N317   1.316       .  A
N311       Mn340   2.208       .  S
N312        C319   1.353       .  A
N313        N315   1.317       .  A
N313        N314   1.320       .  A
N313       Mn329   2.203       .  S
N314        C320   1.351       .  A
N315        N316   1.320       .  A
N315       Mn340   2.196       .  S
N316        C320   1.352       .  A
N317        N318   1.318       .  A
N317       Mn329   2.197       .  S
N318        C319   1.350       .  A
C319        C360   1.464       .  S
N321        N327   1.316       .  A
N321        N322   1.323       .  A
N321       Mn351   2.209       .  S
N322        C330   1.354       .  A
N323        N324   1.320       .  A
N323        N325   1.316       .  A
N323       Mn329   2.208       .  S
N324        C331   1.353       .  A
N325        N326   1.320       .  A
N325       Mn351   2.194       .  S
N326        C331   1.351       .  A
N327        N328   1.318       .  A
N327       Mn329   2.196       .  S
N328        C330   1.349       .  A
Mn329      Cl353   2.521       .  S
N332        N333   1.324       .  A
N332        N338   1.316       .  A
N332       Mn340   2.215       .  S
N333        C341   1.355       .  A
N334        N336   1.316       .  A
N334        N335   1.320       .  A
N334       Mn352   2.211       .  S
N335        C342   1.353       .  A
N336        N337   1.321       .  A
N336       Mn340   2.197       .  S
N337        C342   1.352       .  A
N338        N339   1.318       .  A
N338       Mn352   2.192       .  S
N339        C341   1.349       .  A
Mn340      Cl353   2.573       .  S
C342        C364   1.466       .  S
N343        N344   1.323       .  A
N343        N349   1.316       .  A
N343       Mn351   2.209       .  S
N344        C354   1.354       .  A
N345        N346   1.320       .  A
N345        N347   1.316       .  A
N345       Mn352   2.208       .  S
N346        C355   1.352       .  A
N347        N348   1.320       .  A
N347       Mn351   2.197       .  S
N348        C355   1.352       .  A
N349        N350   1.318       .  A
N349       Mn352   2.196       .  S
N350        C354   1.350       .  A
Mn351      Cl353   2.573       .  S
Mn352      Cl353   2.521       .  S
C356        N357   1.360       .  A
C356        N361   1.362       .  A
C356        C459   1.487       .  S
N357        C358   1.355       .  A
C358        N359   1.356       .  A
C358        C388   1.462       .  S
N359        C360   1.356       .  A
C360        N361   1.359       .  A
C362        N363   1.361       .  A
C362        N367   1.356       .  A
C362        C515   1.489       .  S
N363        C364   1.360       .  A
C364        N365   1.358       .  A
N365        C366   1.356       .  A
C366        N367   1.354       .  A
C366        C387   1.462       .  S
N368        N369   1.321       .  A
N368        N374   1.316       .  A
N368      Mn1669   2.202       .  S
N369        C376   1.353       .  A
N370        N372   1.316       .  A
N370        N371   1.319       .  A
N370       Mn386   2.191       .  S
N371        C377   1.349       .  A
N372        N373   1.322       .  A
N372       Mn397   2.210       .  S
N373        C377   1.354       .  A
N374        N375   1.318       .  A
N374      Mn1658   2.196       .  S
N375        C376   1.350       .  A
N378        N384   1.316       .  A
N378        N379   1.319       .  A
N378       Mn408   2.196       .  S
N379        C387   1.352       .  A
N380        N381   1.318       .  A
N380        N382   1.315       .  A
N380      Mn1658   2.190       .  S
N381        C388   1.349       .  A
N382        N383   1.323       .  A
N382      Mn1680   2.211       .  S
N383        C388   1.355       .  A
N384        N385   1.321       .  A
N384       Mn386   2.202       .  S
N385        C387   1.352       .  A
Mn386      N1646   2.197   1_455  S
Mn386      N1652   2.190   1_455  S
Mn386      Cl410   2.520       .  S
N389        N390   1.321   1_565  A
N389        N395   1.316   1_565  A
N389      Mn1033   2.201       .  S
N390        C398   1.354       .  A
N391        N393   1.316       .  A
N391        N392   1.318       .  A
N391      Mn1681   2.191       .  S
N392        C399   1.349       .  A
N393        N394   1.323       .  A
N393      Mn2305   2.210   1_545  S
N394        C399   1.354       .  A
N395        N396   1.318       .  A
N395       Mn409   2.199       .  S
N396        C398   1.350       .  A
Mn397      N1640   2.202   1_455  S
Mn397      N1025   2.201       .  S
Mn397      N2301   2.210   1_455  S
Mn397      Cl410   2.572       .  S
N400        N401   1.319       .  A
N400        N406   1.316       .  A
N400      Mn2316   2.190   1_545  S
N401        C411   1.351       .  A
N402        N403   1.317       .  A
N402        N404   1.316       .  A
N402       Mn409   2.189       .  S
N403        C412   1.348       .  A
N404        N405   1.325       .  A
N404      Mn1044   2.215   1_545  S
N405        C412   1.356       .  A
N406        N407   1.320       .  A
N406      Mn1681   2.202       .  S
N407        C411   1.352       .  A
Mn408      N1654   2.213   1_455  S
Mn408      N2308   2.191   1_455  S
Mn408      N1040   2.216       .  S
Mn408      Cl410   2.572       .  S
Mn409      N1663   2.192   1_455  S
Mn409      N1678   2.202   1_455  S
Mn409     Cl1046   2.515   1_545  S
Cl410     Mn1045   2.515       .  S
C413        C414   1.398       .  A
C413        C418   1.402       .  A
C413        H420   1.084       .  S
C414        C415   1.405       .  A
C415        C416   1.405       .  A
C415       N1058   1.438   1_545  S
C416        C417   1.410       .  A
C416        H421   1.083       .  S
C417        C418   1.419       .  A
C418        N419   1.438       .  S
N419        H423   1.046       .  S
N419        H424   1.045       .  S
N422       C1051   1.438       .  S
N422        H425   1.045       .  S
N422        H426   1.046       .  S
C427        C428   1.399       .  A
C427        C432   1.402       .  A
C427        H434   1.084       .  S
C428        C429   1.412       .  A
C429        C430   1.401       .  A
C429        N436   1.438       .  S
C430        C431   1.409       .  A
C430        H435   1.084       .  S
C431        C432   1.418       .  A
C432        N433   1.438       .  S
N433        H437   1.046       .  S
N433        H438   1.046       .  S
N436        H439   1.043       .  S
N436        H440   1.046       .  S
C441        C442   1.404       .  A
C441        C446   1.403       .  A
C441        H448   1.084       .  S
C442        C443   1.408       .  A
C443        C444   1.403       .  A
C443        N450   1.438       .  S
C444        C445   1.408       .  A
C444        H449   1.083       .  S
C445        C446   1.417       .  A
C446        N447   1.432       .  S
N447        H451   1.044       .  S
N447        H452   1.046       .  S
N450        H453   1.045       .  S
N450        H454   1.046       .  S
C455        C456   1.403       .  A
C455        C460   1.410       .  A
C455        H462   1.084       .  S
C456        C457   1.407       .  A
C457        C458   1.402       .  A
C457        N464   1.439       .  S
C458        C459   1.407       .  A
C458        H463   1.083       .  S
C459        C460   1.414       .  A
C460        N461   1.437       .  S
N461        H465   1.046       .  S
N461        H466   1.046       .  S
N464        H467   1.045       .  S
N464        H468   1.046       .  S
C469        C470   1.409       .  A
C469        C474   1.402       .  A
C469        H476   1.083       .  S
C470        C471   1.421       .  A
C471        C472   1.404       .  A
C471        N478   1.438       .  S
C472        C473   1.398       .  A
C472        H477   1.084       .  S
C473        C474   1.413       .  A
C474        N475   1.438       .  S
N475        H479   1.045       .  S
N475        H480   1.044       .  S
N478        H481   1.046       .  S
N478        H482   1.046       .  S
C483        C484   1.409       .  A
C483        C488   1.399       .  A
C483        H490   1.083       .  S
C484        C485   1.419       .  A
C485        C486   1.406       .  A
C485        N492   1.438       .  S
C486        C487   1.400       .  A
C486        H491   1.084       .  S
C487        C488   1.412       .  A
C488        N489   1.439       .  S
N489        H493   1.046       .  S
N489        H494   1.043       .  S
N492        H495   1.046       .  S
N492        H496   1.046       .  S
C497        C498   1.405       .  A
C497        C502   1.396       .  A
C497        H504   1.084       .  S
C498        C499   1.417       .  A
C499        C500   1.405       .  A
C499        N506   1.438       .  S
C500        C501   1.400       .  A
C500        H505   1.084       .  S
C501        C502   1.413       .  A
C502        N503   1.439       .  S
N503        H507   1.046       .  S
N503        H508   1.043       .  S
N506        H509   1.046       .  S
N506        H510   1.046       .  S
C511        C512   1.398       .  A
C511        C516   1.398       .  A
C511        H518   1.084       .  S
C512        C513   1.415       .  A
C513        C514   1.404       .  A
C513        N520   1.438       .  S
C514        C515   1.408       .  A
C514        H519   1.084       .  S
C515        C516   1.416       .  A
C516        N517   1.433       .  S
N517        H521   1.045       .  S
N517        H522   1.046       .  S
N520        H523   1.043       .  S
N520        H524   1.046       .  S
C525        C526   1.409       .  A
C525        C530   1.402       .  A
C525        H532   1.083       .  S
C526        C527   1.412       .  A
C527        C528   1.405       .  A
C527        N534   1.432       .  S
C528        C529   1.403       .  A
C528        H533   1.084       .  S
C529        C530   1.415       .  A
C530        N531   1.439       .  S
N531        H535   1.046       .  S
N531        H536   1.043       .  S
N534        H537   1.046       .  S
N534        H538   1.046       .  S
C539        C540   1.409       .  A
C539        C544   1.397       .  A
C539        H546   1.083       .  S
C540        C541   1.414       .  A
C541        C542   1.402       .  A
C541        N548   1.432       .  S
C542        C543   1.400       .  A
C542        H547   1.084       .  S
C543        C544   1.411       .  A
C544        N545   1.438       .  S
N545        H549   1.045       .  S
N545        H550   1.044       .  S
N548        H551   1.046       .  S
N548        H552   1.046       .  S
C553        C554   1.408       .  A
C553        C558   1.403       .  A
C553        H560   1.083       .  S
C554        C555   1.415       .  A
C555        C556   1.407       .  A
C555        N562   1.432       .  S
C556        C557   1.402       .  A
C556        H561   1.084       .  S
C557        C558   1.405       .  A
C558       N1195   1.432       .  S
N559       C1194   1.432       .  S
N559        H564   1.045       .  S
N559       H1199   1.046       .  S
N562        H565   1.046       .  S
N562        H566   1.046       .  S
H563       N1195   1.046       .  S
C567        C568   1.409       .  A
C567        C572   1.399       .  A
C567        H574   1.083       .  S
C568        C569   1.418       .  A
C569        C570   1.402       .  A
C569        N576   1.438       .  S
C570        C571   1.399       .  A
C570        H575   1.084       .  S
C571        C572   1.411       .  A
C572        N573   1.439       .  S
N573        H577   1.045       .  S
N573        H578   1.043       .  S
N576        H579   1.046       .  S
N576        H580   1.046       .  S
C581        C582   1.398       .  A
C581        C586   1.400       .  A
C581        H588   1.084       .  S
C582        C583   1.406       .  A
C583        C584   1.406       .  A
C583       N1862   1.437       .  S
C584        C585   1.410       .  A
C584        H589   1.083       .  S
C585        C586   1.417       .  A
C586        N587   1.433       .  S
N587        H591   1.046       .  S
N587        H592   1.046       .  S
N590       C1855   1.437   1_455  S
N590        H593   1.045   1_455  S
N590        H594   1.046       .  S
C595        C596   1.410       .  A
C595        C600   1.406       .  A
C595        H602   1.083       .  S
C596        C597   1.420       .  A
C597        C598   1.401       .  A
C597        N604   1.433       .  S
C598        C599   1.396       .  A
C598        H603   1.084       .  S
C599        C600   1.406       .  A
C600        N601   1.437       .  S
N601        H605   1.045       .  S
N601        H606   1.045       .  S
N604        H607   1.046       .  S
N604        H608   1.046       .  S
C609        C610   1.408       .  A
C609        C614   1.398       .  A
C609        H616   1.083       .  S
C610        C611   1.412       .  A
C611        C612   1.405       .  A
C611        N618   1.432       .  S
C612        C613   1.403       .  A
C612        H617   1.084       .  S
C613        C614   1.413       .  A
C614        N615   1.439       .  S
N615        H619   1.046       .  S
N615        H620   1.043       .  S
N618        H621   1.046       .  S
N618        H622   1.046       .  S
C623        C624   1.409       .  A
C623        C628   1.398       .  A
C623        H630   1.083       .  S
C624        C625   1.413       .  A
C625        C626   1.403       .  A
C625        N632   1.432       .  S
C626        C627   1.401       .  A
C626        H631   1.084       .  S
C627        C628   1.412       .  A
C628       N1901   1.439       .  S
N629       C1900   1.439   1_455  S
N629        H633   1.046       .  S
N629        H634   1.043       .  S
N632        H635   1.046       .  S
N632        H636   1.046       .  S
C637        N638   1.361       .  A
C637        N642   1.358       .  A
C637       C1260   1.488       .  S
N638        C639   1.360       .  A
C639        N640   1.358       .  A
C639        C738   1.465       .  S
N640        C641   1.355       .  A
C641        N642   1.354       .  A
C641        C681   1.463       .  S
C643        N644   1.361       .  A
C643        N648   1.359       .  A
C643       C1246   1.486       .  S
N644        C645   1.358       .  A
C645        N646   1.356       .  A
C645        C750   1.461       .  S
N646        C647   1.355       .  A
C647        N648   1.354       .  A
C647        C669   1.459       .  S
C649        N650   1.362       .  A
C649        N654   1.359       .  A
C649       C1232   1.494       .  S
N650        C651   1.358       .  A
C651        N652   1.357       .  A
C651        C739   1.463       .  S
N652        C653   1.356       .  A
C653        N654   1.355       .  A
C653        C704   1.462       .  S
C655        N656   1.359       .  A
C655        N660   1.361       .  A
C655       C1221   1.491       .  S
N656        C657   1.356       .  A
C657        N658   1.355       .  A
C657        C773   1.462       .  S
N658        C659   1.355       .  A
C659        N660   1.358       .  A
C659        C670   1.463       .  S
N661        N662   1.322       .  A
N661       N1939   1.316       .  A
N661       Mn690   2.207   1_655  S
N662       C1941   1.353       .  A
N663       N1937   1.317       .  A
N663       Mn679   2.206   1_545  S
N664        C670   1.352       .  A
N665       N1935   1.317       .  A
N665       Mn690   2.195   1_645  S
N666       C1942   1.351       .  A
N667       N1933   1.316       .  A
N667        N668   1.318       .  A
N667       Mn679   2.191       .  S
N668        C669   1.349       .  A
C669       N1934   1.353       .  A
C670       N1938   1.351       .  A
N671       N1949   1.316       .  A
N671       Mn701   2.208   1_645  S
N672       C1952   1.354       .  A
N673        N674   1.321       .  A
N673       N1947   1.316       .  A
N673       Mn679   2.204       .  S
N674        C681   1.352       .  A
N675       N1945   1.316       .  A
N675        N676   1.319       .  A
N675       Mn701   2.195   1_655  S
N676       C1953   1.351       .  A
N677       N1943   1.316       .  A
N677       Mn679   2.199   1_545  S
N678        C680   1.350       .  A
Mn679     Cl1975   2.522       .  S
C680       N1944   1.353       .  A
C680        C716   1.464       .  S
C681       N1948   1.352       .  A
N682       Mn690   2.217   1_545  S
N683        C691   1.355       .  A
N684        N686   1.315       .  A
N684        N685   1.321       .  A
N684       Mn702   2.209       .  S
N685        C692   1.353       .  A
N686        N687   1.320       .  A
N686       Mn690   2.193       .  S
N687        C692   1.352       .  A
N688        N689   1.319       .  A
N689        C691   1.350       .  A
Mn690      Cl703   2.571       .  S
C691        C726   1.469       .  S
C692        C708   1.465       .  S
N693        N694   1.322       .  A
N693        N699   1.316       .  A
N693       Mn701   2.208       .  S
N694        C704   1.354       .  A
N695        N696   1.319       .  A
N696        C705   1.352       .  A
N697       Mn701   2.197   1_545  S
N698        C705   1.352       .  A
N699        N700   1.318       .  A
N699       Mn702   2.193       .  S
N700        C704   1.349       .  A
Mn701      Cl703   2.571       .  S
Mn702      Cl703   2.521       .  S
Cl703     Mn1951   2.523   1_455  S
C705        C720   1.465       .  S
C706        N707   1.359       .  A
C706        N711   1.360       .  A
C706       C1204   1.489       .  S
N707        C708   1.357       .  A
C708        N709   1.356       .  A
N709        C710   1.357       .  A
C710        N711   1.357       .  A
C710        C749   1.463       .  S
C712        N713   1.363       .  A
C712        N717   1.361       .  A
C712       C1190   1.490       .  S
N713        C714   1.358       .  A
C714        N715   1.356       .  A
C714        C761   1.465       .  S
N715        C716   1.356       .  A
C716        N717   1.358       .  A
C718        N719   1.361       .  A
C718        N723   1.357       .  A
C718       C1176   1.489       .  S
N719        C720   1.360       .  A
C720        N721   1.357       .  A
N721        C722   1.355       .  A
C722        N723   1.353       .  A
C722        C760   1.461       .  S
C724        N725   1.363       .  A
C724        N729   1.362       .  A
C724       C1162   1.492       .  S
N725        C726   1.360       .  A
C726        N727   1.357       .  A
N727        C728   1.357       .  A
C728        N729   1.357       .  A
C728        C774   1.465       .  S
N730        N731   1.321       .  A
N730        N736   1.317       .  A
N730       Mn759   2.199       .  S
N731        C738   1.353       .  A
N732        N734   1.316       .  A
N732        N733   1.318       .  A
N732       Mn748   2.190       .  S
N733        C739   1.349       .  A
N734        N735   1.323       .  A
N734       Mn759   2.211       .  S
N735        C739   1.354       .  A
N736        N737   1.319       .  A
N736       Mn748   2.206       .  S
N737        C738   1.352       .  A
N740        N746   1.317       .  A
N740        N741   1.320       .  A
N740       Mn770   2.199       .  S
N741        C749   1.353       .  A
N742        N743   1.318       .  A
N742        N744   1.316       .  A
N742       Mn748   2.191       .  S
N743        C750   1.349       .  A
N744        N745   1.322       .  A
N744       Mn770   2.208       .  S
N745        C750   1.353       .  A
N746        N747   1.319       .  A
N746       Mn748   2.204       .  S
N747        C749   1.351       .  A
Mn748      Cl772   2.520       .  S
N751        N752   1.319       .  A
N751        N757   1.316       .  A
N751       Mn759   2.197       .  S
N752        C760   1.352       .  A
N753        N755   1.316       .  A
N753        N754   1.318       .  A
N753       Mn771   2.194       .  S
N754        C761   1.349       .  A
N755        N756   1.324       .  A
N755       Mn759   2.211       .  S
N756        C761   1.355       .  A
N757        N758   1.320       .  A
N757       Mn771   2.199       .  S
N758        C760   1.351       .  A
Mn759      Cl772   2.573       .  S
N762        N763   1.320       .  A
N762        N768   1.316       .  A
N762       Mn770   2.197       .  S
N763        C773   1.352       .  A
N764        N765   1.317       .  A
N764        N766   1.316       .  A
N764       Mn771   2.191       .  S
N765        C774   1.348       .  A
N766        N767   1.324       .  A
N766       Mn770   2.214       .  S
N767        C774   1.356       .  A
N768        N769   1.319       .  A
N768       Mn771   2.202       .  S
N769        C773   1.351       .  A
Mn770      Cl772   2.573       .  S
Mn771      Cl772   2.518       .  S
N775        C780   1.349       .  A
N775        C779   1.351       .  A
N775        H807   1.035       .  S
N776        C783   1.351       .  A
N776        C784   1.348       .  A
N777        C782   1.355       .  A
N777        C781   1.354       .  A
N777        H808   1.036       .  S
C779        C787   1.387       .  A
C779        C795   1.413       .  A
C780        C788   1.388       .  A
C781        C789   1.388       .  A
C781        C798   1.420       .  A
C782        C790   1.387       .  A
C783        C795   1.410       .  A
C783        C791   1.385       .  A
C784        C798   1.411       .  A
C784        C792   1.387       .  A
C785        C793   1.386       .  A
C785        C796   1.411       .  A
C786        C794   1.386       .  A
C786        C797   1.413       .  A
C787        C788   1.373       .  A
C787        H799   1.082       .  S
C788        H800   1.082       .  S
C789        C790   1.377       .  A
C789        H801   1.082       .  S
C790        H802   1.082       .  S
C791        C792   1.375       .  A
C791        H803   1.082       .  S
C792        H804   1.082       .  S
C793        C794   1.373       .  A
C793        H805   1.082       .  S
C794        H806   1.082       .  S
C795       C1148   1.485       .  S
C796       C1137   1.479       .  S
C797       C1193   1.491       .  S
C798       C1235   1.483       .  S
N809        C814   1.350       .  A
N809        C813   1.351       .  A
N809        H841   1.037       .  S
N810        C817   1.350   1_556  A
N810        C818   1.348       .  A
N811        C816   1.355       .  A
N811        C815   1.353       .  A
N811        H842   1.034       .  S
N812        C819   1.348   1_556  A
N812        C820   1.349       .  A
C813        C821   1.387       .  A
C813       C2101   1.411   1_455  A
C814        C830   1.411       .  A
C814        C822   1.387       .  A
C815        C823   1.387       .  A
C815       C2104   1.419   1_455  A
C816        C831   1.420       .  A
C816        C824   1.387       .  A
C817        C829   1.408       .  A
C817        C825   1.384       .  A
C818        C832   1.412       .  A
C818        C826   1.388       .  A
C819        C827   1.385       .  A
C819        C830   1.408       .  A
C820        C828   1.387       .  A
C820        C831   1.411       .  A
C821        C822   1.371       .  A
C821        H833   1.082       .  S
C822        H834   1.082       .  S
C823        C824   1.377       .  A
C823        H835   1.082       .  S
C824        H836   1.082       .  S
C825        C826   1.374   1_554  A
C825        H837   1.082       .  S
C826        H838   1.082       .  S
C827        C828   1.374   1_554  A
C827        H839   1.082       .  S
C828        H840   1.082       .  S
C829       C1218   1.481       .  S
C829       C2085   1.411       .  A
C830       C1207   1.478       .  S
C831       C1109   1.487       .  S
C832       C1123   1.482       .  S
C832       C2087   1.419       .  A
N843        C848   1.353       .  A
N843        C847   1.352       .  A
N843        H875   1.035       .  S
N844        C851   1.349       .  A
N844        C852   1.350       .  A
N845        C850   1.353       .  A
N845        C849   1.354       .  A
N845        H876   1.037       .  S
N846       C2125   1.349       .  A
N846       C2126   1.349       .  A
C847        C855   1.388       .  A
C847        C863   1.415       .  A
C848       C2136   1.414   1_455  A
C848        C856   1.387       .  A
C849        C857   1.386       .  A
C849        C866   1.417       .  A
C850       C2137   1.416   1_455  A
C850        C858   1.387       .  A
C851        C863   1.408       .  A
C851        C859   1.385       .  A
C852        C866   1.412       .  A
C852        C860   1.387       .  A
C853       N2118   1.349       .  A
C853        C861   1.385       .  A
C853        C864   1.408       .  A
C854       N2118   1.349       .  A
C854        C862   1.386       .  A
C854        C865   1.410       .  A
C855        C856   1.372       .  A
C855        H867   1.082       .  S
C856        H868   1.082       .  S
C857        C858   1.376       .  A
C857        H869   1.082       .  S
C858        H870   1.082   1_455  S
C859        C860   1.374       .  A
C859        H871   1.082       .  S
C860        H872   1.082       .  S
C861        C862   1.375       .  A
C861        H873   1.082       .  S
C862        H874   1.082       .  S
C863       C1179   1.480       .  S
C864       C1263   1.482       .  S
C864       C2120   1.414       .  A
C865       C1092   1.485       .  S
C865       C2122   1.416       .  A
C866       C1078   1.490       .  S
N877        C882   1.350       .  A
N877        C881   1.351       .  A
N877        H909   1.036       .  S
N878        C885   1.350       .  A
N878        C886   1.348   1_556  A
N879        C884   1.355       .  A
N879        C883   1.353       .  A
N879        H910   1.037       .  S
C881        C889   1.387       .  A
C881        C897   1.411       .  A
C882        C890   1.388       .  A
C883        C891   1.388       .  A
C883        C900   1.418       .  A
C884        C892   1.387       .  A
C885        C897   1.408       .  A
C885        C893   1.385       .  A
C886        C900   1.410       .  A
C886        C894   1.387       .  A
C887        C895   1.385       .  A
C887        C898   1.410       .  A
C888        C896   1.387       .  A
C888        C899   1.413       .  A
C889        C890   1.372       .  A
C889        H901   1.082       .  S
C890        H902   1.082       .  S
C891        C892   1.376       .  A
C891        H903   1.082       .  S
C892        H904   1.082       .  S
C893        C894   1.374   1_556  A
C893        H905   1.082       .  S
C894        H906   1.082       .  S
C895        C896   1.375   1_556  A
C895        H907   1.082       .  S
C896        H908   1.082       .  S
C897       C1064   1.481       .  S
C898       C1050   1.480       .  S
C899       C1165   1.491       .  S
C900       C1249   1.483       .  S
C911        N912   1.361       .  A
C911        N916   1.358       .  A
C911       C1067   1.488       .  S
N912        C913   1.358       .  A
C913        N914   1.356       .  A
C913        C967   1.464       .  S
N914        C915   1.356       .  A
C915        N916   1.355       .  A
C915       C1012   1.462       .  S
C917        N918   1.361       .  A
C917        N922   1.362       .  A
C917       C1120   1.493       .  S
N918        C919   1.357       .  A
C919        N920   1.356       .  A
C919       C1035   1.463       .  S
N920        C921   1.356       .  A
C921        N922   1.357       .  A
C921        C966   1.464       .  S
C923        N924   1.359       .  A
C923        N928   1.360       .  A
C923       C1053   1.490       .  S
N924        C925   1.356       .  A
C925        N926   1.356       .  A
C925        C991   1.465       .  S
N926        C927   1.357       .  A
C927        N928   1.357       .  A
C927       C1034   1.463       .  S
C929        N930   1.364       .  A
C929        N934   1.359       .  A
C929       C1106   1.497       .  S
N930        C931   1.360       .  A
C931        N932   1.357       .  A
C931        C990   1.465       .  S
N932        C933   1.355       .  A
C933        N934   1.354       .  A
C933       C1013   1.463       .  S
C935        N936   1.361       .  A
C935        N940   1.361       .  A
C935       C1081   1.486       .  S
N936        C937   1.356       .  A
C937        N938   1.356       .  A
C937        C977   1.464       .  S
N938        C939   1.358       .  A
C939        N940   1.359       .  A
C939       C1048   1.465       .  S
C941        N942   1.357       .  A
C941        N946   1.359       .  A
C941       C1134   1.486       .  S
N942        C943   1.356       .  A
C943        N944   1.356       .  A
C943       C1047   1.459       .  S
N944        C945   1.356       .  A
C945        N946   1.356       .  A
C945        C956   1.461       .  S
N947        N948   1.323       .  A
N947        N953   1.316       .  A
N947       Mn976   2.206       .  S
N948        C955   1.353       .  A
N949        N951   1.317       .  A
N949        N950   1.320       .  A
N949       Mn965   2.204       .  S
N950        C956   1.351       .  A
N951        N952   1.320       .  A
N951       Mn976   2.196       .  S
N952        C956   1.352       .  A
N953        N954   1.318       .  A
N953       Mn965   2.197       .  S
N954        C955   1.350       .  A
C955        C996   1.464       .  S
N957        N963   1.316       .  A
N957        N958   1.323       .  A
N957       Mn987   2.210       .  S
N958        C966   1.354       .  A
N959        N960   1.320       .  A
N959        N961   1.317       .  A
N959       Mn965   2.208       .  S
N960        C967   1.352       .  A
N961        N962   1.320       .  A
N961       Mn987   2.196       .  S
N962        C967   1.351       .  A
N963        N964   1.318       .  A
N963       Mn965   2.195       .  S
N964        C966   1.349       .  A
Mn965      Cl989   2.521       .  S
N968        N969   1.323       .  A
N968        N974   1.316       .  A
N968       Mn976   2.213       .  S
N969        C977   1.355       .  A
N970        N972   1.316       .  A
N970        N971   1.321       .  A
N970       Mn988   2.211       .  S
N971        C978   1.353       .  A
N972        N973   1.320       .  A
N972       Mn976   2.196       .  S
N973        C978   1.352       .  A
N974        N975   1.318       .  A
N974       Mn988   2.193       .  S
N975        C977   1.349       .  A
Mn976      Cl989   2.573       .  S
C978       C1000   1.466       .  S
N979        N980   1.324       .  A
N979        N985   1.316       .  A
N979       Mn987   2.210       .  S
N980        C990   1.354       .  A
N981        N982   1.320       .  A
N981        N983   1.317       .  A
N981       Mn988   2.208       .  S
N982        C991   1.352       .  A
N983        N984   1.320       .  A
N983       Mn987   2.199       .  S
N984        C991   1.352       .  A
N985        N986   1.318       .  A
N985       Mn988   2.195       .  S
N986        C990   1.350       .  A
Mn987      Cl989   2.573       .  S
Mn988      Cl989   2.521       .  S
C992        N993   1.360       .  A
C992        N997   1.362       .  A
C992       C1095   1.487       .  S
N993        C994   1.355       .  A
C994        N995   1.356       .  A
C994       C1024   1.462       .  S
N995        C996   1.356       .  A
C996        N997   1.360       .  A
C998        N999   1.361       .  A
C998       N1003   1.357       .  A
C998       C1151   1.488       .  S
N999       C1000   1.360       .  A
C1000      N1001   1.358       .  A
N1001      C1002   1.356       .  A
C1002      N1003   1.355       .  A
C1002      C1023   1.463       .  S
N1004      N1005   1.321       .  A
N1004      N1010   1.316       .  A
N1004     Mn2305   2.202       .  S
N1005      C1012   1.353       .  A
N1006      N1008   1.316       .  A
N1006      N1007   1.319       .  A
N1006     Mn1022   2.193       .  S
N1007      C1013   1.350       .  A
N1008      N1009   1.322       .  A
N1008     Mn1033   2.208       .  S
N1009      C1013   1.354       .  A
N1010      N1011   1.318       .  A
N1010     Mn2294   2.197       .  S
N1011      C1012   1.350       .  A
N1014      N1020   1.316       .  A
N1014      N1015   1.319       .  A
N1014     Mn1044   2.196       .  S
N1015      C1023   1.351       .  A
N1016      N1017   1.318       .  A
N1016      N1018   1.315       .  A
N1016     Mn2294   2.190       .  S
N1017      C1024   1.349       .  A
N1018      N1019   1.323       .  A
N1018     Mn2316   2.212       .  S
N1019      C1024   1.355       .  A
N1020      N1021   1.321       .  A
N1020     Mn1022   2.203       .  S
N1021      C1023   1.352       .  A
Mn1022     N2282   2.196   1_455  S
Mn1022     N2288   2.190   1_455  S
Mn1022    Cl1046   2.521       .  S
N1025      N1026   1.321       .  A
N1025      N1031   1.316       .  A
N1026      C1034   1.353       .  A
N1027      N1029   1.316       .  A
N1027      N1028   1.318       .  A
N1027     Mn2317   2.192       .  S
N1028      C1035   1.349       .  A
N1029      N1030   1.323       .  A
N1029     Mn1669   2.209       .  S
N1030      C1035   1.354       .  A
N1031      N1032   1.318       .  A
N1031     Mn1045   2.198       .  S
N1032      C1034   1.350       .  A
Mn1033     N2276   2.202   1_455  S
Mn1033     N1665   2.208   1_465  S
Mn1033    Cl1046   2.572       .  S
N1036      N1037   1.318       .  A
N1036      N1042   1.316       .  A
N1036     Mn1680   2.190       .  S
N1037      C1047   1.351       .  A
N1038      N1039   1.317       .  A
N1038      N1040   1.316       .  A
N1038     Mn1045   2.188       .  S
N1039      C1048   1.347       .  A
N1040      N1041   1.325       .  A
N1041      C1048   1.356       .  A
N1042      N1043   1.320       .  A
N1042     Mn2317   2.200       .  S
N1043      C1047   1.351       .  A
Mn1044     N2290   2.211   1_455  S
Mn1044     N1672   2.191   1_465  S
Mn1044    Cl1046   2.571       .  S
Mn1045     N2299   2.192   1_455  S
Mn1045     N2314   2.202   1_455  S
C1049      C1050   1.398       .  A
C1049      C1054   1.402       .  A
C1049      H1056   1.084       .  S
C1050      C1051   1.405       .  A
C1051      C1052   1.406       .  A
C1052      C1053   1.410       .  A
C1052      H1057   1.083       .  S
C1053      C1054   1.419       .  A
C1054      N1055   1.438       .  S
N1055      H1059   1.046       .  S
N1055      H1060   1.045       .  S
N1058      H1061   1.046       .  S
N1058      H1062   1.046       .  S
C1063      C1064   1.399       .  A
C1063      C1068   1.402       .  A
C1063      H1070   1.084       .  S
C1064      C1065   1.412       .  A
C1065      C1066   1.401       .  A
C1065      N1072   1.438       .  S
C1066      C1067   1.409       .  A
C1066      H1071   1.084       .  S
C1067      C1068   1.418       .  A
C1068      N1069   1.438       .  S
N1069      H1073   1.046       .  S
N1069      H1074   1.046       .  S
N1072      H1075   1.043       .  S
N1072      H1076   1.046       .  S
C1077      C1078   1.404       .  A
C1077      C1082   1.402       .  A
C1077      H1084   1.084       .  S
C1078      C1079   1.408       .  A
C1079      C1080   1.403       .  A
C1079      N1086   1.438       .  S
C1080      C1081   1.408       .  A
C1080      H1085   1.083       .  S
C1081      C1082   1.417       .  A
C1082      N1083   1.432       .  S
N1083      H1087   1.044       .  S
N1083      H1088   1.046       .  S
N1086      H1089   1.045       .  S
N1086      H1090   1.046       .  S
C1091      C1092   1.403       .  A
C1091      C1096   1.409       .  A
C1091      H1098   1.084       .  S
C1092      C1093   1.407       .  A
C1093      C1094   1.402       .  A
C1093      N1100   1.439       .  S
C1094      C1095   1.408       .  A
C1094      H1099   1.083       .  S
C1095      C1096   1.414       .  A
C1096      N1097   1.437       .  S
N1097      H1101   1.046       .  S
N1097      H1102   1.046       .  S
N1100      H1103   1.045       .  S
N1100      H1104   1.046       .  S
C1105      C1106   1.409       .  A
C1105      C1110   1.403       .  A
C1105      H1112   1.083       .  S
C1106      C1107   1.422       .  A
C1107      C1108   1.404       .  A
C1107      N1114   1.438       .  S
C1108      C1109   1.398       .  A
C1108      H1113   1.084       .  S
C1109      C1110   1.414       .  A
C1110      N1111   1.438       .  S
N1111      H1115   1.045       .  S
N1111      H1116   1.044       .  S
N1114      H1117   1.046       .  S
N1114      H1118   1.046       .  S
C1119      C1120   1.409       .  A
C1119      C1124   1.399       .  A
C1119      H1126   1.083       .  S
C1120      C1121   1.419       .  A
C1121      C1122   1.406       .  A
C1121      N1128   1.438       .  S
C1122      C1123   1.400       .  A
C1122      H1127   1.084       .  S
C1123      C1124   1.412       .  A
C1124      N1125   1.439       .  S
N1125      H1129   1.046       .  S
N1125      H1130   1.043       .  S
N1128      H1131   1.046       .  S
N1128      H1132   1.046       .  S
C1133      C1134   1.406       .  A
C1133      C1138   1.396       .  A
C1133      H1140   1.083       .  S
C1134      C1135   1.418       .  A
C1135      C1136   1.405       .  A
C1135      N1142   1.438       .  S
C1136      C1137   1.399       .  A
C1136      H1141   1.084       .  S
C1137      C1138   1.412       .  A
C1138      N1139   1.439       .  S
N1139      H1143   1.046       .  S
N1139      H1144   1.043       .  S
N1142      H1145   1.046       .  S
N1142      H1146   1.046       .  S
C1147      C1148   1.400       .  A
C1147      C1152   1.402       .  A
C1147      H1154   1.084       .  S
C1148      C1149   1.414       .  A
C1149      C1150   1.403       .  A
C1149      N1156   1.438       .  S
C1150      C1151   1.408       .  A
C1150      H1155   1.084       .  S
C1151      C1152   1.417       .  A
C1152      N1153   1.438       .  S
N1153      H1157   1.046       .  S
N1153      H1158   1.046       .  S
N1156      H1159   1.043       .  S
N1156      H1160   1.046       .  S
C1161      C1162   1.409       .  A
C1161      C1166   1.402       .  A
C1161      H1168   1.083       .  S
C1162      C1163   1.412       .  A
C1163      C1164   1.405       .  A
C1163      N1170   1.432       .  S
C1164      C1165   1.403       .  A
C1164      H1169   1.084       .  S
C1165      C1166   1.415       .  A
C1166      N1167   1.439       .  S
N1167      H1171   1.046       .  S
N1167      H1172   1.043       .  S
N1170      H1173   1.046       .  S
N1170      H1174   1.046       .  S
C1175      C1176   1.409       .  A
C1175      C1180   1.397       .  A
C1175      H1182   1.083       .  S
C1176      C1177   1.414       .  A
C1177      C1178   1.402       .  A
C1177      N1184   1.432       .  S
C1178      C1179   1.401       .  A
C1178      H1183   1.084       .  S
C1179      C1180   1.411       .  A
C1180      N1181   1.438       .  S
N1181      H1185   1.046       .  S
N1181      H1186   1.044       .  S
N1184      H1187   1.046       .  S
N1184      H1188   1.046       .  S
C1189      C1190   1.408       .  A
C1189      C1194   1.402       .  A
C1189      H1196   1.083       .  S
C1190      C1191   1.415       .  A
C1191      C1192   1.408       .  A
C1191      N1198   1.432       .  S
C1192      C1193   1.403       .  A
C1192      H1197   1.084       .  S
C1193      C1194   1.405       .  A
N1195      H1200   1.045       .  S
N1198      H1201   1.046       .  S
N1198      H1202   1.046       .  S
C1203      C1204   1.409       .  A
C1203      C1208   1.399       .  A
C1203      H1210   1.083       .  S
C1204      C1205   1.418       .  A
C1205      C1206   1.402       .  A
C1205      N1212   1.438       .  S
C1206      C1207   1.399       .  A
C1206      H1211   1.084       .  S
C1207      C1208   1.411       .  A
C1208      N1209   1.439       .  S
N1209      H1213   1.045       .  S
N1209      H1214   1.043       .  S
N1212      H1215   1.046       .  S
N1212      H1216   1.046       .  S
C1217      C1218   1.398       .  A
C1217      C1222   1.400       .  A
C1217      H1224   1.084       .  S
C1218      C1219   1.405       .  A
C1219      C1220   1.406       .  A
C1219      N2498   1.437       .  S
C1220      C1221   1.410       .  A
C1220      H1225   1.083       .  S
C1221      C1222   1.417       .  A
C1222      N1223   1.433       .  S
N1223      H1227   1.046       .  S
N1223      H1228   1.046       .  S
N1226      C2491   1.437   1_455  S
N1226      H1229   1.045   1_455  S
N1226      H1230   1.046       .  S
C1231      C1232   1.410       .  A
C1231      C1236   1.406       .  A
C1231      H1238   1.083       .  S
C1232      C1233   1.420       .  A
C1233      C1234   1.401       .  A
C1233      N1240   1.433       .  S
C1234      C1235   1.397       .  A
C1234      H1239   1.084       .  S
C1235      C1236   1.407       .  A
C1236      N1237   1.437       .  S
N1237      H1241   1.046       .  S
N1237      H1242   1.045       .  S
N1240      H1243   1.046       .  S
N1240      H1244   1.046       .  S
C1245      C1246   1.408       .  A
C1245      C1250   1.398       .  A
C1245      H1252   1.083       .  S
C1246      C1247   1.412       .  A
C1247      C1248   1.404       .  A
C1247      N1254   1.432       .  S
C1248      C1249   1.402       .  A
C1248      H1253   1.084       .  S
C1249      C1250   1.413       .  A
C1250      N1251   1.439       .  S
N1251      H1255   1.046       .  S
N1251      H1256   1.043       .  S
N1254      H1257   1.046       .  S
N1254      H1258   1.046       .  S
C1259      C1260   1.409       .  A
C1259      C1264   1.398       .  A
C1259      H1266   1.083       .  S
C1260      C1261   1.413       .  A
C1261      C1262   1.403       .  A
C1261      N1268   1.432       .  S
C1262      C1263   1.401       .  A
C1262      H1267   1.084       .  S
C1263      C1264   1.412       .  A
C1264      N2537   1.438       .  S
N1265      C2536   1.439   1_455  S
N1265      H1269   1.045       .  S
N1265      H1270   1.043       .  S
N1268      H1271   1.046       .  S
N1268      H1272   1.046       .  S
C1273      N1274   1.361       .  A
C1273      N1278   1.358       .  A
C1273      C1896   1.487       .  S
N1274      C1275   1.360       .  A
C1275      N1276   1.357       .  A
C1275      C1374   1.464       .  S
N1276      C1277   1.355       .  A
C1277      N1278   1.354       .  A
C1277      C1317   1.462       .  S
C1279      N1280   1.361       .  A
C1279      N1284   1.360       .  A
C1279      C1882   1.486       .  S
N1280      C1281   1.358       .  A
C1281      N1282   1.356       .  A
C1281      C1386   1.462       .  S
N1282      C1283   1.355       .  A
C1283      N1284   1.355       .  A
C1283      C1305   1.460       .  S
C1285      N1286   1.362       .  A
C1285      N1290   1.359       .  A
C1285      C1868   1.493       .  S
N1286      C1287   1.358       .  A
C1287      N1288   1.357       .  A
C1287      C1375   1.463       .  S
N1288      C1289   1.356       .  A
C1289      N1290   1.354       .  A
C1289      C1340   1.461       .  S
C1291      N1292   1.358       .  A
C1291      N1296   1.361       .  A
C1291      C1857   1.491       .  S
N1292      C1293   1.356       .  A
C1293      N1294   1.355       .  A
C1293      C1409   1.462       .  S
N1294      C1295   1.356       .  A
C1295      N1296   1.358       .  A
C1295      C1306   1.463       .  S
N1297      N1298   1.322       .  A
N1297     Mn1326   2.206       .  S
N1299      N1936   1.320       .  A
N1299     Mn1315   2.205       .  S
N1300      C1306   1.352       .  A
N1300      N1935   1.320       .  A
N1301      N1938   1.320       .  A
N1301     Mn1326   2.194       .  S
N1302      N1937   1.320       .  A
N1303      N1304   1.318       .  A
N1303     Mn1315   2.191       .  S
N1304      C1305   1.349       .  A
N1307      N1944   1.323       .  A
N1307     Mn1337   2.208       .  S
N1308      N1943   1.323       .  A
N1309      N1310   1.321       .  A
N1309     Mn1315   2.203       .  S
N1310      C1317   1.352       .  A
N1311      N1312   1.319       .  A
N1311     Mn1337   2.196       .  S
N1313      N1950   1.318       .  A
N1313     Mn1315   2.198       .  S
N1314      C1316   1.350       .  A
N1314      N1949   1.319       .  A
C1316      C1352   1.464       .  S
N1318      N1955   1.325       .  A
N1318      N1960   1.316       .  A
N1318     Mn1326   2.215       .  S
N1319      C1327   1.355       .  A
N1319      N1954   1.325       .  A
N1320      N1322   1.315       .  A
N1320      N1321   1.321       .  A
N1320     Mn1338   2.209       .  S
N1321      C1328   1.353       .  A
N1322      N1323   1.320       .  A
N1322     Mn1326   2.192       .  S
N1323      C1328   1.351       .  A
N1324      N1954   1.316       .  A
N1324      N1325   1.319       .  A
N1324     Mn1974   2.199   1_545  S
N1325      C1327   1.350       .  A
Mn1326    Cl1339   2.571       .  S
C1327      C1362   1.469       .  S
C1328      C1344   1.465       .  S
N1329      N1330   1.322       .  A
N1329      N1335   1.316       .  A
N1329     Mn1337   2.208       .  S
N1330      C1340   1.354       .  A
N1331      N1332   1.320       .  A
N1331      N1969   1.317       .  A
N1331     Mn1974   2.210   1_545  S
N1332      C1341   1.352       .  A
N1333      N1967   1.317       .  A
N1333      N1970   1.321       .  A
N1333     Mn1337   2.198       .  S
N1334      C1341   1.352       .  A
N1334      N1969   1.321       .  A
N1335      N1336   1.318       .  A
N1335     Mn1338   2.192       .  S
N1336      C1340   1.349       .  A
Mn1337    Cl1339   2.571       .  S
Mn1338     N1960   2.199       .  S
Mn1338     N1967   2.209       .  S
Mn1338    Cl1339   2.521       .  S
C1341      C1356   1.465       .  S
C1342      N1343   1.359       .  A
C1342      N1347   1.359       .  A
C1342      C1840   1.489       .  S
N1343      C1344   1.357       .  A
C1344      N1345   1.356       .  A
N1345      C1346   1.357       .  A
C1346      N1347   1.356       .  A
C1346      C1385   1.463       .  S
C1348      N1349   1.363       .  A
C1348      N1353   1.361       .  A
C1348      C1826   1.490       .  S
N1349      C1350   1.358       .  A
C1350      N1351   1.356       .  A
C1350      C1397   1.465       .  S
N1351      C1352   1.356       .  A
C1352      N1353   1.357       .  A
C1354      N1355   1.362       .  A
C1354      N1359   1.358       .  A
C1354      C1812   1.490       .  S
N1355      C1356   1.360       .  A
C1356      N1357   1.357       .  A
N1357      C1358   1.355       .  A
C1358      N1359   1.354       .  A
C1358      C1396   1.460       .  S
C1360      N1361   1.363       .  A
C1360      N1365   1.362       .  A
C1360      C1798   1.491       .  S
N1361      C1362   1.359       .  A
C1362      N1363   1.357       .  A
N1363      C1364   1.357       .  A
C1364      N1365   1.357       .  A
C1364      C1410   1.465       .  S
N1366      N1367   1.321       .  A
N1366      N1372   1.316       .  A
N1366     Mn1395   2.196       .  S
N1367      C1374   1.352       .  A
N1368      N1370   1.316       .  A
N1368      N1369   1.318       .  A
N1368     Mn1384   2.191       .  S
N1369      C1375   1.349       .  A
N1370      N1371   1.323       .  A
N1370     Mn1395   2.210       .  S
N1371      C1375   1.354       .  A
N1372      N1373   1.319       .  A
N1372     Mn1384   2.204       .  S
N1373      C1374   1.351       .  A
N1376      N1382   1.317       .  A
N1376      N1377   1.320       .  A
N1376     Mn1406   2.200       .  S
N1377      C1385   1.353       .  A
N1378      N1379   1.318       .  A
N1378      N1380   1.316       .  A
N1378     Mn1384   2.192       .  S
N1379      C1386   1.349       .  A
N1380      N1381   1.323       .  A
N1380     Mn1406   2.209       .  S
N1381      C1386   1.353       .  A
N1382      N1383   1.319       .  A
N1382     Mn1384   2.201       .  S
N1383      C1385   1.351       .  A
Mn1384    Cl1408   2.520       .  S
N1387      N1388   1.319       .  A
N1387      N1393   1.316       .  A
N1387     Mn1395   2.195       .  S
N1388      C1396   1.352       .  A
N1389      N1391   1.316       .  A
N1389      N1390   1.318       .  A
N1389     Mn1407   2.194       .  S
N1390      C1397   1.349       .  A
N1391      N1392   1.324       .  A
N1391     Mn1395   2.211       .  S
N1392      C1397   1.355       .  A
N1393      N1394   1.320       .  A
N1393     Mn1407   2.200       .  S
N1394      C1396   1.351       .  A
Mn1395    Cl1408   2.573       .  S
N1398      N1399   1.320       .  A
N1398      N1404   1.316       .  A
N1398     Mn1406   2.197       .  S
N1399      C1409   1.352       .  A
N1400      N1401   1.317       .  A
N1400      N1402   1.316       .  A
N1400     Mn1407   2.190       .  S
N1401      C1410   1.348       .  A
N1402      N1403   1.325       .  A
N1402     Mn1406   2.216       .  S
N1403      C1410   1.356       .  A
N1404      N1405   1.319       .  A
N1404     Mn1407   2.202       .  S
N1405      C1409   1.351       .  A
Mn1406    Cl1408   2.573       .  S
Mn1407    Cl1408   2.518       .  S
N1411      C1416   1.349       .  A
N1411      C1415   1.351       .  A
N1411      H1443   1.035       .  S
N1412      C1419   1.351       .  A
N1412      C1420   1.348       .  A
N1413      C1418   1.355       .  A
N1413      C1417   1.354       .  A
N1413      H1444   1.036       .  S
N1414      C2057   1.350       .  A
N1414      C2058   1.350       .  A
C1415      C1423   1.387       .  A
C1415      C1431   1.412       .  A
C1416      C2068   1.411       .  A
C1416      C1424   1.387       .  A
C1417      C1425   1.388       .  A
C1417      C1434   1.419       .  A
C1418      C2069   1.419       .  A
C1418      C1426   1.387       .  A
C1419      C1431   1.410       .  A
C1419      C1427   1.384       .  A
C1420      C1434   1.411       .  A
C1420      C1428   1.387       .  A
C1421      N2050   1.350   1_545  A
C1421      C1429   1.385       .  A
C1421      C1432   1.410       .  A
C1422      N2050   1.350   1_545  A
C1422      C1430   1.386       .  A
C1422      C1433   1.411       .  A
C1423      C1424   1.373       .  A
C1423      H1435   1.082       .  S
C1424      H1436   1.082       .  S
C1425      C1426   1.377       .  A
C1425      H1437   1.082       .  S
C1426      H1438   1.082       .  S
C1427      C1428   1.375       .  A
C1427      H1439   1.082       .  S
C1428      H1440   1.082       .  S
C1429      C1430   1.374       .  A
C1429      H1441   1.082       .  S
C1430      H1442   1.082       .  S
C1431      C1784   1.484       .  S
C1432      C1773   1.479       .  S
C1432      C2052   1.411   1_545  A
C1433      C1829   1.489       .  S
C1433      C2054   1.419   1_545  A
C1434      C1871   1.482       .  S
N1445      C1450   1.350       .  A
N1445      C1449   1.351       .  A
N1445      H1477   1.037       .  S
N1446      C1453   1.351   1_456  A
N1446      C1454   1.348   1_455  A
N1447      C1452   1.355       .  A
N1447      C1451   1.353       .  A
N1447      H1478   1.035       .  S
N1448      C1455   1.349   1_556  A
N1448      C1456   1.349       .  A
C1449      C1457   1.387       .  A
C1450      C1466   1.411       .  A
C1450      C1458   1.387       .  A
C1451      C1459   1.387       .  A
C1452      C1467   1.420       .  A
C1452      C1460   1.387       .  A
C1453      C1465   1.408       .  A
C1453      C1461   1.384       .  A
C1454      C1468   1.412       .  A
C1454      C1462   1.388       .  A
C1455      C1463   1.385       .  A
C1455      C1466   1.408       .  A
C1456      C1464   1.387       .  A
C1456      C1467   1.411       .  A
C1457      C1458   1.371       .  A
C1457      H1469   1.082       .  S
C1458      H1470   1.082       .  S
C1459      C1460   1.377       .  A
C1459      H1471   1.082       .  S
C1460      H1472   1.082       .  S
C1461      C1462   1.374   1_554  A
C1461      H1473   1.082       .  S
C1462      H1474   1.082       .  S
C1463      C1464   1.374   1_554  A
C1463      H1475   1.082       .  S
C1464      H1476   1.082       .  S
C1465      C1854   1.482       .  S
C1466      C1843   1.478       .  S
C1467      C1745   1.487       .  S
C1468      C1759   1.482       .  S
N1479      C1484   1.353       .  A
N1479      C1483   1.352       .  A
N1479      H1511   1.036       .  S
N1480      C1487   1.349       .  A
N1480      C1488   1.350       .  A
N1481      C1486   1.353       .  A
N1481      C1485   1.354       .  A
N1481      H1512   1.037       .  S
C1483      C1491   1.388       .  A
C1483      C1499   1.415       .  A
C1484      C1492   1.387       .  A
C1485      C1493   1.387       .  A
C1485      C1502   1.417       .  A
C1486      C1494   1.387       .  A
C1487      C1499   1.408       .  A
C1487      C1495   1.385       .  A
C1488      C1502   1.412       .  A
C1488      C1496   1.387       .  A
C1489      C1497   1.385       .  A
C1489      C1500   1.409       .  A
C1490      C1498   1.386       .  A
C1490      C1501   1.410       .  A
C1491      C1492   1.372       .  A
C1491      H1503   1.082       .  S
C1492      H1504   1.082       .  S
C1493      C1494   1.377       .  A
C1493      H1505   1.082       .  S
C1494      H1506   1.082       .  S
C1495      C1496   1.374       .  A
C1495      H1507   1.082       .  S
C1496      H1508   1.082       .  S
C1497      C1498   1.375       .  A
C1497      H1509   1.082       .  S
C1498      H1510   1.082       .  S
C1499      C1815   1.481       .  S
C1500      C1899   1.482       .  S
C1501      C1728   1.486       .  S
C1502      C1714   1.490       .  S
N1513      C1518   1.349       .  A
N1513      C1517   1.350       .  A
N1513      H1545   1.037       .  S
N1514      C1521   1.350       .  A
N1514      C1522   1.348   1_556  A
N1515      C1520   1.355       .  A
N1515      C1519   1.353       .  A
N1515      H1546   1.037       .  S
N1516      C2159   1.350   1_554  A
N1516      C2160   1.350       .  A
C1517      C1525   1.386       .  A
C1517      C1533   1.410       .  A
C1518      C2170   1.412       .  A
C1518      C1526   1.388       .  A
C1519      C1527   1.388       .  A
C1519      C1536   1.419       .  A
C1520      C2171   1.419       .  A
C1520      C1528   1.387       .  A
C1521      C1533   1.408       .  A
C1521      C1529   1.385       .  A
C1522      C1536   1.410       .  A
C1522      C1530   1.387       .  A
C1523      N2152   1.351   1_546  A
C1523      C1531   1.385       .  A
C1523      C1534   1.410       .  A
C1524      N2152   1.350   1_545  A
C1524      C1532   1.387       .  A
C1524      C1535   1.413       .  A
C1525      C1526   1.373       .  A
C1525      H1537   1.082       .  S
C1526      H1538   1.082       .  S
C1527      C1528   1.376       .  A
C1527      H1539   1.082       .  S
C1528      H1540   1.082       .  S
C1529      C1530   1.374   1_556  A
C1529      H1541   1.082       .  S
C1530      H1542   1.082       .  S
C1531      C1532   1.375   1_556  A
C1531      H1543   1.082       .  S
C1532      H1544   1.082       .  S
C1533      C1700   1.480       .  S
C1534      C1686   1.480       .  S
C1534      C2154   1.412   1_545  A
C1535      C1801   1.490       .  S
C1535      C2156   1.419   1_545  A
C1536      C1885   1.483       .  S
C1547      N1548   1.360       .  A
C1547      N1552   1.358       .  A
C1547      C1703   1.488       .  S
N1548      C1549   1.357       .  A
C1549      N1550   1.356       .  A
C1549      C1603   1.463       .  S
N1550      C1551   1.356       .  A
C1551      N1552   1.355       .  A
C1551      C1648   1.462       .  S
C1553      N1554   1.361       .  A
C1553      N1558   1.362       .  A
C1553      C1756   1.493       .  S
N1554      C1555   1.357       .  A
C1555      N1556   1.356       .  A
C1555      C1671   1.462       .  S
N1556      C1557   1.356       .  A
C1557      N1558   1.357       .  A
C1557      C1602   1.464       .  S
C1559      N1560   1.359       .  A
C1559      N1564   1.360       .  A
C1559      C1689   1.489       .  S
N1560      C1561   1.356       .  A
C1561      N1562   1.355       .  A
C1561      C1627   1.464       .  S
N1562      C1563   1.357       .  A
C1563      N1564   1.357       .  A
C1563      C1670   1.462       .  S
C1565      N1566   1.364       .  A
C1565      N1570   1.359       .  A
C1565      C1742   1.497       .  S
N1566      C1567   1.360       .  A
C1567      N1568   1.357       .  A
C1567      C1626   1.466       .  S
N1568      C1569   1.355       .  A
C1569      N1570   1.354       .  A
C1569      C1649   1.463       .  S
C1571      N1572   1.361       .  A
C1571      N1576   1.361       .  A
C1571      C1717   1.486       .  S
N1572      C1573   1.355       .  A
C1573      N1574   1.356       .  A
C1573      C1613   1.465       .  S
N1574      C1575   1.358       .  A
C1575      N1576   1.359       .  A
C1575      C1684   1.465       .  S
C1577      N1578   1.357       .  A
C1577      N1582   1.359       .  A
C1577      C1770   1.484       .  S
N1578      C1579   1.356       .  A
C1579      N1580   1.356       .  A
C1579      C1683   1.460       .  S
N1580      C1581   1.356       .  A
C1581      N1582   1.356       .  A
C1581      C1592   1.462       .  S
N1583      N1584   1.323       .  A
N1583      N1589   1.316       .  A
N1583     Mn1612   2.207       .  S
N1584      C1591   1.353       .  A
N1585      N1587   1.317       .  A
N1585      N1586   1.320       .  A
N1585     Mn1601   2.203       .  S
N1586      C1592   1.351       .  A
N1587      N1588   1.320       .  A
N1587     Mn1612   2.197       .  S
N1588      C1592   1.352       .  A
N1589      N1590   1.319       .  A
N1589     Mn1601   2.198       .  S
N1590      C1591   1.350       .  A
C1591      C1632   1.465       .  S
N1593      N1599   1.316       .  A
N1593      N1594   1.323       .  A
N1593     Mn1623   2.210       .  S
N1594      C1602   1.354       .  A
N1595      N1596   1.320       .  A
N1595      N1597   1.316       .  A
N1595     Mn1601   2.207       .  S
N1596      C1603   1.352       .  A
N1597      N1598   1.320       .  A
N1597     Mn1623   2.193       .  S
N1598      C1603   1.351       .  A
N1599      N1600   1.318       .  A
N1599     Mn1601   2.196       .  S
N1600      C1602   1.349       .  A
Mn1601    Cl1625   2.521       .  S
N1604      N1605   1.324       .  A
N1604      N1610   1.316       .  A
N1604     Mn1612   2.214       .  S
N1605      C1613   1.355       .  A
N1606      N1608   1.316       .  A
N1606      N1607   1.321       .  A
N1606     Mn1624   2.211       .  S
N1607      C1614   1.353       .  A
N1608      N1609   1.320       .  A
N1608     Mn1612   2.197       .  S
N1609      C1614   1.352       .  A
N1610      N1611   1.319       .  A
N1610     Mn1624   2.194       .  S
N1611      C1613   1.349       .  A
Mn1612    Cl1625   2.572       .  S
C1614      C1636   1.466       .  S
N1615      N1616   1.324       .  A
N1615      N1621   1.316       .  A
N1615     Mn1623   2.210       .  S
N1616      C1626   1.354       .  A
N1617      N1618   1.320       .  A
N1617      N1619   1.316       .  A
N1617     Mn1624   2.208       .  S
N1618      C1627   1.352       .  A
N1619      N1620   1.320       .  A
N1619     Mn1623   2.196       .  S
N1620      C1627   1.352       .  A
N1621      N1622   1.318       .  A
N1621     Mn1624   2.196       .  S
N1622      C1626   1.350       .  A
Mn1623    Cl1625   2.573       .  S
Mn1624    Cl1625   2.522       .  S
C1628      N1629   1.360       .  A
C1628      N1633   1.362       .  A
C1628      C1731   1.487       .  S
N1629      C1630   1.355       .  A
C1630      N1631   1.356       .  A
C1630      C1660   1.463       .  S
N1631      C1632   1.356       .  A
C1632      N1633   1.360       .  A
C1634      N1635   1.361       .  A
C1634      N1639   1.357       .  A
C1634      C1787   1.488       .  S
N1635      C1636   1.360       .  A
C1636      N1637   1.358       .  A
N1637      C1638   1.356       .  A
C1638      N1639   1.355       .  A
C1638      C1659   1.463       .  S
N1640      N1641   1.321       .  A
N1640      N1646   1.316       .  A
N1641      C1648   1.353       .  A
N1642      N1644   1.316       .  A
N1642      N1643   1.319       .  A
N1642     Mn1658   2.193       .  S
N1643      C1649   1.350       .  A
N1644      N1645   1.322       .  A
N1644     Mn1669   2.209       .  S
N1645      C1649   1.354       .  A
N1646      N1647   1.318       .  A
N1647      C1648   1.350       .  A
N1650      N1656   1.316       .  A
N1650      N1651   1.319       .  A
N1650     Mn1680   2.195       .  S
N1651      C1659   1.351       .  A
N1652      N1653   1.318       .  A
N1652      N1654   1.315       .  A
N1653      C1660   1.349       .  A
N1654      N1655   1.323       .  A
N1655      C1660   1.355       .  A
N1656      N1657   1.321       .  A
N1656     Mn1658   2.203       .  S
N1657      C1659   1.352       .  A
Mn1658    Cl1682   2.520       .  S
N1661      N1662   1.321   1_565  A
N1661      N1667   1.316   1_565  A
N1661     Mn2305   2.200       .  S
N1662      C1670   1.353       .  A
N1663      N1665   1.316       .  A
N1663      N1664   1.318       .  A
N1664      C1671   1.349       .  A
N1665      N1666   1.323       .  A
N1666      C1671   1.354       .  A
N1667      N1668   1.318       .  A
N1667     Mn1681   2.198       .  S
N1668      C1670   1.350       .  A
Mn1669     N2297   2.201       .  S
Mn1669    Cl1682   2.572       .  S
N1672      N1673   1.319       .  A
N1672      N1678   1.316       .  A
N1673      C1683   1.351       .  A
N1674      N1675   1.317       .  A
N1674      N1676   1.316       .  A
N1674     Mn1681   2.189       .  S
N1675      C1684   1.347       .  A
N1676      N1677   1.325       .  A
N1676     Mn2316   2.215   1_545  S
N1677      C1684   1.356       .  A
N1678      N1679   1.320       .  A
N1679      C1683   1.352       .  A
Mn1680     N2312   2.215       .  S
Mn1680    Cl1682   2.571       .  S
Mn1681    Cl2318   2.515   1_545  S
Cl1682    Mn2317   2.515       .  S
C1685      C1686   1.398       .  A
C1685      C1690   1.402       .  A
C1685      H1692   1.084       .  S
C1686      C1687   1.405       .  A
C1687      C1688   1.405       .  A
C1687      N2330   1.438   1_545  S
C1688      C1689   1.410       .  A
C1688      H1693   1.083       .  S
C1689      C1690   1.418       .  A
C1690      N1691   1.438       .  S
N1691      H1695   1.046       .  S
N1691      H1696   1.045       .  S
N1694      C2323   1.438       .  S
N1694      H1697   1.045       .  S
N1694      H1698   1.046       .  S
C1699      C1700   1.399       .  A
C1699      C1704   1.402       .  A
C1699      H1706   1.084       .  S
C1700      C1701   1.412       .  A
C1701      C1702   1.400       .  A
C1701      N1708   1.438       .  S
C1702      C1703   1.409       .  A
C1702      H1707   1.084       .  S
C1703      C1704   1.418       .  A
C1704      N1705   1.438       .  S
N1705      H1709   1.046       .  S
N1705      H1710   1.046       .  S
N1708      H1711   1.043       .  S
N1708      H1712   1.046       .  S
C1713      C1714   1.404       .  A
C1713      C1718   1.402       .  A
C1713      H1720   1.084       .  S
C1714      C1715   1.408       .  A
C1715      C1716   1.403       .  A
C1715      N1722   1.438       .  S
C1716      C1717   1.408       .  A
C1716      H1721   1.083       .  S
C1717      C1718   1.417       .  A
C1718      N1719   1.432       .  S
N1719      H1723   1.044       .  S
N1719      H1724   1.046       .  S
N1722      H1725   1.045       .  S
N1722      H1726   1.046       .  S
C1727      C1728   1.403       .  A
C1727      C1732   1.410       .  A
C1727      H1734   1.084       .  S
C1728      C1729   1.407       .  A
C1729      C1730   1.401       .  A
C1729      N1736   1.439   1_655  S
C1730      C1731   1.407       .  A
C1730      H1735   1.083       .  S
C1731      C1732   1.414       .  A
C1732      N1733   1.437       .  S
N1733      H1737   1.046       .  S
N1733      H1738   1.046       .  S
N1736      H1739   1.045       .  S
N1736      H1740   1.046       .  S
C1741      C1742   1.409       .  A
C1741      C1746   1.403       .  A
C1741      H1748   1.083       .  S
C1742      C1743   1.422       .  A
C1743      C1744   1.404       .  A
C1743      N1750   1.438       .  S
C1744      C1745   1.398       .  A
C1744      H1749   1.084       .  S
C1745      C1746   1.414       .  A
C1746      N1747   1.438       .  S
N1747      H1751   1.045       .  S
N1747      H1752   1.044       .  S
N1750      H1753   1.046       .  S
N1750      H1754   1.046       .  S
C1755      C1756   1.409       .  A
C1755      C1760   1.399       .  A
C1755      H1762   1.083       .  S
C1756      C1757   1.419       .  A
C1757      C1758   1.406       .  A
C1757      N1764   1.438       .  S
C1758      C1759   1.400       .  A
C1758      H1763   1.084   1_655  S
C1759      C1760   1.412       .  A
C1760      N1761   1.439       .  S
N1761      H1765   1.046       .  S
N1761      H1766   1.043       .  S
N1764      H1767   1.046       .  S
N1764      H1768   1.046   1_655  S
C1769      C1770   1.405       .  A
C1769      C1774   1.396       .  A
C1769      H1776   1.084       .  S
C1770      C1771   1.417       .  A
C1771      C1772   1.405       .  A
C1771      N1778   1.438       .  S
C1772      C1773   1.400       .  A
C1772      H1777   1.084       .  S
C1773      C1774   1.413       .  A
C1774      N1775   1.439       .  S
N1775      H1779   1.046       .  S
N1775      H1780   1.043       .  S
N1778      H1781   1.046       .  S
N1778      H1782   1.046       .  S
C1783      C1784   1.399       .  A
C1783      C1788   1.402       .  A
C1783      H1790   1.084       .  S
C1784      C1785   1.414       .  A
C1785      C1786   1.403       .  A
C1785      N1792   1.438       .  S
C1786      C1787   1.408       .  A
C1786      H1791   1.084       .  S
C1787      C1788   1.418       .  A
C1788      N1789   1.438       .  S
N1789      H1793   1.046       .  S
N1789      H1794   1.045       .  S
N1792      H1795   1.043       .  S
N1792      H1796   1.045       .  S
C1797      C1798   1.409       .  A
C1797      C1802   1.402       .  A
C1797      H1804   1.083       .  S
C1798      C1799   1.412       .  A
C1799      C1800   1.405       .  A
C1799      N1806   1.432       .  S
C1800      C1801   1.403       .  A
C1800      H1805   1.084       .  S
C1801      C1802   1.415       .  A
C1802      N1803   1.439       .  S
N1803      H1807   1.046       .  S
N1803      H1808   1.043       .  S
N1806      H1809   1.046       .  S
N1806      H1810   1.046       .  S
C1811      C1812   1.409       .  A
C1811      C1816   1.398       .  A
C1811      H1818   1.083       .  S
C1812      C1813   1.414       .  A
C1813      C1814   1.403       .  A
C1813      N1820   1.432       .  S
C1814      C1815   1.401       .  A
C1814      H1819   1.084       .  S
C1815      C1816   1.411       .  A
C1816      N1817   1.438       .  S
N1817      H1821   1.045       .  S
N1817      H1822   1.044       .  S
N1820      H1823   1.046       .  S
N1820      H1824   1.046       .  S
C1825      C1826   1.408       .  A
C1825      C1830   1.402       .  A
C1825      H1832   1.083       .  S
C1826      C1827   1.415       .  A
C1827      C1828   1.407       .  A
C1827      N1834   1.432       .  S
C1828      C1829   1.403       .  A
C1828      H1833   1.084       .  S
C1829      C1830   1.404       .  A
C1830      N2467   1.432       .  S
N1831      C2466   1.432       .  S
N1831      H2471   1.046       .  S
N1831      H1836   1.045       .  S
N1834      H1837   1.046       .  S
N1834      H1838   1.046       .  S
H1835      N2467   1.046       .  S
C1839      C1840   1.409       .  A
C1839      C1844   1.399       .  A
C1839      H1846   1.083       .  S
C1840      C1841   1.418       .  A
C1841      C1842   1.402       .  A
C1841      N1848   1.438       .  S
C1842      C1843   1.399       .  A
C1842      H1847   1.084       .  S
C1843      C1844   1.411       .  A
C1844      N1845   1.439       .  S
N1845      H1849   1.045       .  S
N1845      H1850   1.043       .  S
N1848      H1851   1.046       .  S
N1848      H1852   1.046       .  S
C1853      C1854   1.398       .  A
C1853      C1858   1.400       .  A
C1853      H1860   1.084       .  S
C1854      C1855   1.406       .  A
C1855      C1856   1.406       .  A
C1856      C1857   1.410       .  A
C1856      H1861   1.083       .  S
C1857      C1858   1.417       .  A
C1858      N1859   1.433       .  S
N1859      H1863   1.046       .  S
N1859      H1864   1.046       .  S
N1862      H1865   1.045       .  S
N1862      H1866   1.046       .  S
C1867      C1868   1.410       .  A
C1867      C1872   1.406       .  A
C1867      H1874   1.083       .  S
C1868      C1869   1.420       .  A
C1869      C1870   1.401       .  A
C1869      N1876   1.433       .  S
C1870      C1871   1.396       .  A
C1870      H1875   1.084       .  S
C1871      C1872   1.406       .  A
C1872      N1873   1.437       .  S
N1873      H1877   1.045       .  S
N1873      H1878   1.046       .  S
N1876      H1879   1.046       .  S
N1876      H1880   1.046       .  S
C1881      C1882   1.408       .  A
C1881      C1886   1.398       .  A
C1881      H1888   1.083       .  S
C1882      C1883   1.412       .  A
C1883      C1884   1.404       .  A
C1883      N1890   1.432       .  S
C1884      C1885   1.402       .  A
C1884      H1889   1.084       .  S
C1885      C1886   1.413       .  A
C1886      N1887   1.439       .  S
N1887      H1891   1.046       .  S
N1887      H1892   1.043       .  S
N1890      H1893   1.046       .  S
N1890      H1894   1.046       .  S
C1895      C1896   1.409       .  A
C1895      C1900   1.398       .  A
C1895      H1902   1.083       .  S
C1896      C1897   1.413       .  A
C1897      C1898   1.402       .  A
C1897      N1904   1.432       .  S
C1898      C1899   1.401       .  A
C1898      H1903   1.084       .  S
C1899      C1900   1.412       .  A
N1901      H1905   1.045       .  S
N1901      H1906   1.043       .  S
N1904      H1907   1.046       .  S
N1904      H1908   1.046       .  S
C1909      N1910   1.361       .  A
C1909      N1914   1.358       .  A
C1909      C2532   1.488       .  S
N1910      C1911   1.360       .  A
C1911      N1912   1.357       .  A
C1911      C2010   1.465       .  S
N1912      C1913   1.355       .  A
C1913      N1914   1.354       .  A
C1913      C1953   1.463       .  S
C1915      N1916   1.361       .  A
C1915      N1920   1.360       .  A
C1915      C2518   1.486       .  S
N1916      C1917   1.358       .  A
C1917      N1918   1.356       .  A
C1917      C2022   1.462       .  S
N1918      C1919   1.355       .  A
C1919      N1920   1.355       .  A
C1919      C1941   1.460       .  S
C1921      N1922   1.362       .  A
C1921      N1926   1.359       .  A
C1921      C2504   1.494       .  S
N1922      C1923   1.358       .  A
C1923      N1924   1.357       .  A
C1923      C2011   1.463       .  S
N1924      C1925   1.356       .  A
C1925      N1926   1.354       .  A
C1925      C1976   1.461       .  S
C1927      N1928   1.359       .  A
C1927      N1932   1.361       .  A
C1927      C2493   1.491       .  S
N1928      C1929   1.356       .  A
C1929      N1930   1.355       .  A
C1929      C2045   1.462       .  S
N1930      C1931   1.356       .  A
C1931      N1932   1.358       .  A
C1931      C1942   1.462       .  S
N1933      N1934   1.322       .  A
N1933     Mn1962   2.206       .  S
N1935     Mn1951   2.207   1_545  S
N1936      C1942   1.352       .  A
N1937     Mn1962   2.194   1_545  S
N1939      N1940   1.318       .  A
N1939     Mn1951   2.193       .  S
N1940      C1941   1.349       .  A
N1943     Mn1973   2.210   1_545  S
N1945      N1946   1.321       .  A
N1945     Mn1951   2.205       .  S
N1946      C1953   1.352       .  A
N1947      N1948   1.319       .  A
N1947     Mn1973   2.195       .  S
N1949     Mn1951   2.200   1_545  S
N1950      C1952   1.350       .  A
C1952      C1988   1.463       .  S
N1954     Mn1962   2.216   1_545  S
N1955      C1963   1.355       .  A
N1956      N1958   1.315       .  A
N1956      N1957   1.321       .  A
N1956     Mn1974   2.209       .  S
N1957      C1964   1.353       .  A
N1958      N1959   1.320       .  A
N1958     Mn1962   2.192       .  S
N1959      C1964   1.351       .  A
N1960      N1961   1.319       .  A
N1961      C1963   1.350       .  A
Mn1962    Cl1975   2.571       .  S
C1963      C1998   1.468       .  S
C1964      C1980   1.465       .  S
N1965      N1966   1.322       .  A
N1965      N1971   1.316       .  A
N1965     Mn1973   2.208       .  S
N1966      C1976   1.354       .  A
N1967      N1968   1.319       .  A
N1968      C1977   1.352       .  A
N1969     Mn1973   2.197   1_545  S
N1970      C1977   1.352       .  A
N1971      N1972   1.318       .  A
N1971     Mn1974   2.192       .  S
N1972      C1976   1.349       .  A
Mn1973    Cl1975   2.571       .  S
Mn1974    Cl1975   2.521       .  S
C1977      C1992   1.466       .  S
C1978      N1979   1.359       .  A
C1978      N1983   1.359       .  A
C1978      C2476   1.488       .  S
N1979      C1980   1.357       .  A
C1980      N1981   1.356       .  A
N1981      C1982   1.357       .  A
C1982      N1983   1.357       .  A
C1982      C2021   1.462       .  S
C1984      N1985   1.363       .  A
C1984      N1989   1.361       .  A
C1984      C2462   1.491       .  S
N1985      C1986   1.358       .  A
C1986      N1987   1.356       .  A
C1986      C2033   1.464       .  S
N1987      C1988   1.356       .  A
C1988      N1989   1.357       .  A
C1990      N1991   1.362       .  A
C1990      N1995   1.357       .  A
C1990      C2448   1.489       .  S
N1991      C1992   1.360       .  A
C1992      N1993   1.357       .  A
N1993      C1994   1.355       .  A
C1994      N1995   1.353       .  A
C1994      C2032   1.460       .  S
C1996      N1997   1.363       .  A
C1996      N2001   1.362       .  A
C1996      C2434   1.492       .  S
N1997      C1998   1.360       .  A
C1998      N1999   1.357       .  A
N1999      C2000   1.357       .  A
C2000      N2001   1.357       .  A
C2000      C2046   1.465       .  S
N2002      N2003   1.321       .  A
N2002      N2008   1.317       .  A
N2002     Mn2031   2.198       .  S
N2003      C2010   1.352       .  A
N2004      N2006   1.316       .  A
N2004      N2005   1.318       .  A
N2004     Mn2020   2.191       .  S
N2005      C2011   1.349       .  A
N2006      N2007   1.323       .  A
N2006     Mn2031   2.210       .  S
N2007      C2011   1.354       .  A
N2008      N2009   1.319       .  A
N2008     Mn2020   2.205       .  S
N2009      C2010   1.352       .  A
N2012      N2018   1.317       .  A
N2012      N2013   1.320       .  A
N2012     Mn2042   2.199       .  S
N2013      C2021   1.353       .  A
N2014      N2015   1.318       .  A
N2014      N2016   1.316       .  A
N2014     Mn2020   2.191       .  S
N2015      C2022   1.349       .  A
N2016      N2017   1.323       .  A
N2016     Mn2042   2.209       .  S
N2017      C2022   1.353       .  A
N2018      N2019   1.319       .  A
N2018     Mn2020   2.202       .  S
N2019      C2021   1.351       .  A
Mn2020    Cl2044   2.519       .  S
N2023      N2024   1.319       .  A
N2023      N2029   1.316       .  A
N2023     Mn2031   2.195       .  S
N2024      C2032   1.352       .  A
N2025      N2027   1.316       .  A
N2025      N2026   1.318       .  A
N2025     Mn2043   2.192       .  S
N2026      C2033   1.349       .  A
N2027      N2028   1.324       .  A
N2027     Mn2031   2.211       .  S
N2028      C2033   1.355       .  A
N2029      N2030   1.320       .  A
N2029     Mn2043   2.200       .  S
N2030      C2032   1.351       .  A
Mn2031    Cl2044   2.573       .  S
N2034      N2035   1.320       .  A
N2034      N2040   1.316       .  A
N2034     Mn2042   2.197       .  S
N2035      C2045   1.352       .  A
N2036      N2037   1.317       .  A
N2036      N2038   1.316       .  A
N2036     Mn2043   2.189       .  S
N2037      C2046   1.348       .  A
N2038      N2039   1.324       .  A
N2038     Mn2042   2.215       .  S
N2039      C2046   1.356       .  A
N2040      N2041   1.319       .  A
N2040     Mn2043   2.202       .  S
N2041      C2045   1.351       .  A
Mn2042    Cl2044   2.574       .  S
Mn2043    Cl2044   2.518       .  S
N2047      C2052   1.350       .  A
N2047      C2051   1.351       .  A
N2047      H2079   1.035       .  S
N2048      C2055   1.351       .  A
N2048      C2056   1.348       .  A
N2049      C2054   1.355       .  A
N2049      C2053   1.354       .  A
N2049      H2080   1.036       .  S
C2051      C2059   1.387       .  A
C2051      C2067   1.413       .  A
C2052      C2060   1.387       .  A
C2053      C2061   1.388       .  A
C2053      C2070   1.419       .  A
C2054      C2062   1.387       .  A
C2055      C2067   1.410       .  A
C2055      C2063   1.385       .  A
C2056      C2070   1.411       .  A
C2056      C2064   1.387       .  A
C2057      C2065   1.385       .  A
C2057      C2068   1.410       .  A
C2058      C2066   1.386       .  A
C2058      C2069   1.411       .  A
C2059      C2060   1.373       .  A
C2059      H2071   1.082       .  S
C2060      H2072   1.082       .  S
C2061      C2062   1.377       .  A
C2061      H2073   1.082       .  S
C2062      H2074   1.082       .  S
C2063      C2064   1.375       .  A
C2063      H2075   1.082       .  S
C2064      H2076   1.082       .  S
C2065      C2066   1.374       .  A
C2065      H2077   1.082       .  S
C2066      H2078   1.082       .  S
C2067      C2420   1.484       .  S
C2068      C2409   1.478       .  S
C2069      C2465   1.489       .  S
C2070      C2507   1.483       .  S
N2081      C2086   1.350       .  A
N2081      C2085   1.351       .  A
N2081      H2113   1.037       .  S
N2082      C2089   1.351   1_456  A
N2082      C2090   1.348   1_455  A
N2083      C2088   1.355       .  A
N2083      C2087   1.353       .  A
N2083      H2114   1.034       .  S
N2084      C2091   1.348   1_556  A
N2084      C2092   1.348       .  A
C2085      C2093   1.387       .  A
C2086      C2102   1.411       .  A
C2086      C2094   1.387       .  A
C2087      C2095   1.387       .  A
C2088      C2103   1.420       .  A
C2088      C2096   1.388       .  A
C2089      C2101   1.408       .  A
C2089      C2097   1.384       .  A
C2090      C2104   1.412       .  A
C2090      C2098   1.388       .  A
C2091      C2099   1.385       .  A
C2091      C2102   1.407       .  A
C2092      C2100   1.387       .  A
C2092      C2103   1.411       .  A
C2093      C2094   1.371       .  A
C2093      H2105   1.082       .  S
C2094      H2106   1.082       .  S
C2095      C2096   1.377       .  A
C2095      H2107   1.082       .  S
C2096      H2108   1.082       .  S
C2097      C2098   1.374   1_554  A
C2097      H2109   1.082       .  S
C2098      H2110   1.082       .  S
C2099      C2100   1.374   1_554  A
C2099      H2111   1.082       .  S
C2100      H2112   1.082       .  S
C2101      C2490   1.482       .  S
C2102      C2479   1.478       .  S
C2103      C2381   1.485       .  S
C2104      C2395   1.482       .  S
N2115      C2120   1.353       .  A
N2115      C2119   1.352       .  A
N2115      H2147   1.035       .  S
N2116      C2123   1.349       .  A
N2116      C2124   1.350       .  A
N2117      C2122   1.353       .  A
N2117      C2121   1.354       .  A
N2117      H2148   1.037       .  S
C2119      C2127   1.388       .  A
C2119      C2135   1.415       .  A
C2120      C2128   1.387       .  A
C2121      C2129   1.386       .  A
C2121      C2138   1.416       .  A
C2122      C2130   1.387       .  A
C2123      C2135   1.408       .  A
C2123      C2131   1.385       .  A
C2124      C2138   1.412       .  A
C2124      C2132   1.387       .  A
C2125      C2133   1.385       .  A
C2125      C2136   1.408       .  A
C2126      C2134   1.386       .  A
C2126      C2137   1.410       .  A
C2127      C2128   1.372       .  A
C2127      H2139   1.082       .  S
C2128      H2140   1.082       .  S
C2129      C2130   1.377       .  A
C2129      H2141   1.082       .  S
C2130      H2142   1.082       .  S
C2131      C2132   1.374       .  A
C2131      H2143   1.082       .  S
C2132      H2144   1.082       .  S
C2133      C2134   1.375       .  A
C2133      H2145   1.082       .  S
C2134      H2146   1.082       .  S
C2135      C2451   1.480       .  S
C2136      C2535   1.482       .  S
C2137      C2364   1.485       .  S
C2138      C2350   1.489       .  S
N2149      C2154   1.350       .  A
N2149      C2153   1.351       .  A
N2149      H2181   1.036       .  S
N2150      C2157   1.350       .  A
N2150      C2158   1.348   1_556  A
N2151      C2156   1.355       .  A
N2151      C2155   1.353       .  A
N2151      H2182   1.036       .  S
C2153      C2161   1.387       .  A
C2153      C2169   1.411       .  A
C2154      C2162   1.388       .  A
C2155      C2163   1.387       .  A
C2155      C2172   1.419       .  A
C2156      C2164   1.387       .  A
C2157      C2169   1.408       .  A
C2157      C2165   1.385       .  A
C2158      C2172   1.410       .  A
C2158      C2166   1.387       .  A
C2159      C2167   1.385       .  A
C2159      C2170   1.410       .  A
C2160      C2168   1.387       .  A
C2160      C2171   1.413       .  A
C2161      C2162   1.372       .  A
C2161      H2173   1.082       .  S
C2162      H2174   1.082       .  S
C2163      C2164   1.376       .  A
C2163      H2175   1.082       .  S
C2164      H2176   1.082       .  S
C2165      C2166   1.374   1_556  A
C2165      H2177   1.082       .  S
C2166      H2178   1.082       .  S
C2167      C2168   1.375   1_556  A
C2167      H2179   1.082       .  S
C2168      H2180   1.082       .  S
C2169      C2336   1.480       .  S
C2170      C2322   1.480       .  S
C2171      C2437   1.490       .  S
C2172      C2521   1.484       .  S
C2183      N2184   1.360       .  A
C2183      N2188   1.358       .  A
C2183      C2339   1.488       .  S
N2184      C2185   1.358       .  A
C2185      N2186   1.356       .  A
C2185      C2239   1.464       .  S
N2186      C2187   1.356       .  A
C2187      N2188   1.355       .  A
C2187      C2284   1.461       .  S
C2189      N2190   1.361       .  A
C2189      N2194   1.362       .  A
C2189      C2392   1.493       .  S
N2190      C2191   1.357       .  A
C2191      N2192   1.356       .  A
C2191      C2307   1.462       .  S
N2192      C2193   1.356       .  A
C2193      N2194   1.357       .  A
C2193      C2238   1.463       .  S
C2195      N2196   1.359       .  A
C2195      N2200   1.360       .  A
C2195      C2325   1.489       .  S
N2196      C2197   1.356       .  A
C2197      N2198   1.355       .  A
C2197      C2263   1.465       .  S
N2198      C2199   1.357       .  A
C2199      N2200   1.357       .  A
C2199      C2306   1.462       .  S
C2201      N2202   1.364       .  A
C2201      N2206   1.359       .  A
C2201      C2378   1.496       .  S
N2202      C2203   1.360       .  A
C2203      N2204   1.357       .  A
C2203      C2262   1.465       .  S
N2204      C2205   1.355       .  A
C2205      N2206   1.354       .  A
C2205      C2285   1.463       .  S
C2207      N2208   1.360       .  A
C2207      N2212   1.361       .  A
C2207      C2353   1.486       .  S
N2208      C2209   1.355       .  A
C2209      N2210   1.356       .  A
C2209      C2249   1.464       .  S
N2210      C2211   1.358       .  A
C2211      N2212   1.359       .  A
C2211      C2320   1.465       .  S
C2213      N2214   1.357       .  A
C2213      N2218   1.359       .  A
C2213      C2406   1.484       .  S
N2214      C2215   1.356       .  A
C2215      N2216   1.356       .  A
C2215      C2319   1.460       .  S
N2216      C2217   1.356       .  A
C2217      N2218   1.356       .  A
C2217      C2228   1.462       .  S
N2219      N2220   1.323       .  A
N2219      N2225   1.316       .  A
N2219     Mn2248   2.207       .  S
N2220      C2227   1.353       .  A
N2221      N2223   1.317       .  A
N2221      N2222   1.320       .  A
N2221     Mn2237   2.204       .  S
N2222      C2228   1.351       .  A
N2223      N2224   1.320       .  A
N2223     Mn2248   2.197       .  S
N2224      C2228   1.352       .  A
N2225      N2226   1.318       .  A
N2225     Mn2237   2.197       .  S
N2226      C2227   1.350       .  A
C2227      C2268   1.464       .  S
N2229      N2235   1.316       .  A
N2229      N2230   1.323       .  A
N2229     Mn2259   2.209       .  S
N2230      C2238   1.354       .  A
N2231      N2232   1.320       .  A
N2231      N2233   1.316       .  A
N2231     Mn2237   2.208       .  S
N2232      C2239   1.353       .  A
N2233      N2234   1.320       .  A
N2233     Mn2259   2.193       .  S
N2234      C2239   1.351       .  A
N2235      N2236   1.318       .  A
N2235     Mn2237   2.196       .  S
N2236      C2238   1.349       .  A
Mn2237    Cl2261   2.521       .  S
N2240      N2241   1.323       .  A
N2240      N2246   1.316       .  A
N2240     Mn2248   2.214       .  S
N2241      C2249   1.355       .  A
N2242      N2244   1.316       .  A
N2242      N2243   1.321       .  A
N2242     Mn2260   2.212       .  S
N2243      C2250   1.353       .  A
N2244      N2245   1.321       .  A
N2244     Mn2248   2.197       .  S
N2245      C2250   1.352       .  A
N2246      N2247   1.318       .  A
N2246     Mn2260   2.192       .  S
N2247      C2249   1.349       .  A
Mn2248    Cl2261   2.572       .  S
C2250      C2272   1.467       .  S
N2251      N2252   1.323       .  A
N2251      N2257   1.316       .  A
N2251     Mn2259   2.209       .  S
N2252      C2262   1.354       .  A
N2253      N2254   1.321       .  A
N2253      N2255   1.316       .  A
N2253     Mn2260   2.209       .  S
N2254      C2263   1.352       .  A
N2255      N2256   1.320       .  A
N2255     Mn2259   2.197       .  S
N2256      C2263   1.352       .  A
N2257      N2258   1.318       .  A
N2257     Mn2260   2.195       .  S
N2258      C2262   1.350       .  A
Mn2259    Cl2261   2.573       .  S
Mn2260    Cl2261   2.521       .  S
C2264      N2265   1.360       .  A
C2264      N2269   1.362       .  A
C2264      C2367   1.487       .  S
N2265      C2266   1.355       .  A
C2266      N2267   1.356       .  A
C2266      C2296   1.462       .  S
N2267      C2268   1.356       .  A
C2268      N2269   1.359       .  A
C2270      N2271   1.361       .  A
C2270      N2275   1.357       .  A
C2270      C2423   1.489       .  S
N2271      C2272   1.360       .  A
C2272      N2273   1.358       .  A
N2273      C2274   1.356       .  A
C2274      N2275   1.355       .  A
C2274      C2295   1.463       .  S
N2276      N2277   1.321       .  A
N2276      N2282   1.316       .  A
N2277      C2284   1.353       .  A
N2278      N2280   1.316       .  A
N2278      N2279   1.319       .  A
N2278     Mn2294   2.192       .  S
N2279      C2285   1.350       .  A
N2280      N2281   1.322       .  A
N2280     Mn2305   2.210       .  S
N2281      C2285   1.354       .  A
N2282      N2283   1.318       .  A
N2283      C2284   1.350       .  A
N2286      N2292   1.316       .  A
N2286      N2287   1.319       .  A
N2286     Mn2316   2.195       .  S
N2287      C2295   1.351       .  A
N2288      N2289   1.318       .  A
N2288      N2290   1.315       .  A
N2289      C2296   1.349       .  A
N2290      N2291   1.323       .  A
N2291      C2296   1.355       .  A
N2292      N2293   1.321       .  A
N2292     Mn2294   2.204       .  S
N2293      C2295   1.352       .  A
Mn2294    Cl2318   2.521       .  S
N2297      N2298   1.321       .  A
N2297      N2303   1.316       .  A
N2298      C2306   1.353       .  A
N2299      N2301   1.316       .  A
N2299      N2300   1.318       .  A
N2300      C2307   1.349       .  A
N2301      N2302   1.323       .  A
N2302      C2307   1.354       .  A
N2303      N2304   1.318       .  A
N2303     Mn2317   2.197       .  S
N2304      C2306   1.350       .  A
Mn2305    Cl2318   2.572       .  S
N2308      N2309   1.319       .  A
N2308      N2314   1.316       .  A
N2309      C2319   1.351       .  A
N2310      N2311   1.317       .  A
N2310      N2312   1.316       .  A
N2310     Mn2317   2.188       .  S
N2311      C2320   1.347       .  A
N2312      N2313   1.325       .  A
N2313      C2320   1.356       .  A
N2314      N2315   1.320       .  A
N2315      C2319   1.351       .  A
Mn2316    Cl2318   2.571       .  S
C2321      C2322   1.398       .  A
C2321      C2326   1.402       .  A
C2321      H2328   1.084       .  S
C2322      C2323   1.405       .  A
C2323      C2324   1.405       .  A
C2324      C2325   1.410       .  A
C2324      H2329   1.083       .  S
C2325      C2326   1.418       .  A
C2326      N2327   1.438       .  S
N2327      H2331   1.046       .  S
N2327      H2332   1.045       .  S
N2330      H2333   1.046       .  S
N2330      H2334   1.046       .  S
C2335      C2336   1.399       .  A
C2335      C2340   1.402       .  A
C2335      H2342   1.084       .  S
C2336      C2337   1.412       .  A
C2337      C2338   1.401       .  A
C2337      N2344   1.438       .  S
C2338      C2339   1.409       .  A
C2338      H2343   1.083       .  S
C2339      C2340   1.418       .  A
C2340      N2341   1.438       .  S
N2341      H2345   1.046       .  S
N2341      H2346   1.046       .  S
N2344      H2347   1.043       .  S
N2344      H2348   1.046       .  S
C2349      C2350   1.404       .  A
C2349      C2354   1.402       .  A
C2349      H2356   1.084       .  S
C2350      C2351   1.408       .  A
C2351      C2352   1.403       .  A
C2351      N2358   1.438       .  S
C2352      C2353   1.408       .  A
C2352      H2357   1.083       .  S
C2353      C2354   1.417       .  A
C2354      N2355   1.432       .  S
N2355      H2359   1.044       .  S
N2355      H2360   1.046       .  S
N2358      H2361   1.045       .  S
N2358      H2362   1.046       .  S
C2363      C2364   1.403       .  A
C2363      C2368   1.409       .  A
C2363      H2370   1.084       .  S
C2364      C2365   1.407       .  A
C2365      C2366   1.402       .  A
C2365      N2372   1.439   1_655  S
C2366      C2367   1.408       .  A
C2366      H2371   1.083       .  S
C2367      C2368   1.414       .  A
C2368      N2369   1.437       .  S
N2369      H2373   1.046       .  S
N2369      H2374   1.046       .  S
N2372      H2375   1.045       .  S
N2372      H2376   1.046       .  S
C2377      C2378   1.409       .  A
C2377      C2382   1.403       .  A
C2377      H2384   1.083       .  S
C2378      C2379   1.422       .  A
C2379      C2380   1.404       .  A
C2379      N2386   1.438       .  S
C2380      C2381   1.397       .  A
C2380      H2385   1.084       .  S
C2381      C2382   1.413       .  A
C2382      N2383   1.438       .  S
N2383      H2387   1.045       .  S
N2383      H2388   1.044       .  S
N2386      H2389   1.046       .  S
N2386      H2390   1.046       .  S
C2391      C2392   1.409       .  A
C2391      C2396   1.399       .  A
C2391      H2398   1.083       .  S
C2392      C2393   1.419       .  A
C2393      C2394   1.406       .  A
C2393      N2400   1.438       .  S
C2394      C2395   1.400       .  A
C2394      H2399   1.084   1_655  S
C2395      C2396   1.412       .  A
C2396      N2397   1.439       .  S
N2397      H2401   1.046       .  S
N2397      H2402   1.043       .  S
N2400      H2403   1.046       .  S
N2400      H2404   1.046   1_655  S
C2405      C2406   1.405       .  A
C2405      C2410   1.396       .  A
C2405      H2412   1.084       .  S
C2406      C2407   1.417       .  A
C2407      C2408   1.405       .  A
C2407      N2414   1.438       .  S
C2408      C2409   1.399       .  A
C2408      H2413   1.084       .  S
C2409      C2410   1.413       .  A
C2410      N2411   1.439       .  S
N2411      H2415   1.046       .  S
N2411      H2416   1.043       .  S
N2414      H2417   1.046       .  S
N2414      H2418   1.046       .  S
C2419      C2420   1.400       .  A
C2419      C2424   1.403       .  A
C2419      H2426   1.084       .  S
C2420      C2421   1.414       .  A
C2421      C2422   1.403       .  A
C2421      N2428   1.438       .  S
C2422      C2423   1.408       .  A
C2422      H2427   1.084       .  S
C2423      C2424   1.418       .  A
C2424      N2425   1.438       .  S
N2425      H2429   1.046       .  S
N2425      H2430   1.046       .  S
N2428      H2431   1.043       .  S
N2428      H2432   1.045       .  S
C2433      C2434   1.409       .  A
C2433      C2438   1.402       .  A
C2433      H2440   1.083       .  S
C2434      C2435   1.412       .  A
C2435      C2436   1.405       .  A
C2435      N2442   1.432       .  S
C2436      C2437   1.403       .  A
C2436      H2441   1.084       .  S
C2437      C2438   1.415       .  A
C2438      N2439   1.439       .  S
N2439      H2443   1.046       .  S
N2439      H2444   1.043       .  S
N2442      H2445   1.046       .  S
N2442      H2446   1.046       .  S
C2447      C2448   1.409       .  A
C2447      C2452   1.397       .  A
C2447      H2454   1.083       .  S
C2448      C2449   1.414       .  A
C2449      C2450   1.403       .  A
C2449      N2456   1.432       .  S
C2450      C2451   1.401       .  A
C2450      H2455   1.084       .  S
C2451      C2452   1.411       .  A
C2452      N2453   1.438       .  S
N2453      H2457   1.045       .  S
N2453      H2458   1.044       .  S
N2456      H2459   1.046       .  S
N2456      H2460   1.046       .  S
C2461      C2462   1.408       .  A
C2461      C2466   1.402       .  A
C2461      H2468   1.083       .  S
C2462      C2463   1.415       .  A
C2463      C2464   1.407       .  A
C2463      N2470   1.432       .  S
C2464      C2465   1.402       .  A
C2464      H2469   1.084       .  S
C2465      C2466   1.404       .  A
N2467      H2472   1.045       .  S
N2470      H2473   1.046       .  S
N2470      H2474   1.046       .  S
C2475      C2476   1.409       .  A
C2475      C2480   1.400       .  A
C2475      H2482   1.083       .  S
C2476      C2477   1.418       .  A
C2477      C2478   1.402       .  A
C2477      N2484   1.438       .  S
C2478      C2479   1.398       .  A
C2478      H2483   1.084       .  S
C2479      C2480   1.412       .  A
C2480      N2481   1.439       .  S
N2481      H2485   1.045       .  S
N2481      H2486   1.043       .  S
N2484      H2487   1.046       .  S
N2484      H2488   1.046       .  S
C2489      C2490   1.398       .  A
C2489      C2494   1.400       .  A
C2489      H2496   1.084       .  S
C2490      C2491   1.406       .  A
C2491      C2492   1.406       .  A
C2492      C2493   1.410       .  A
C2492      H2497   1.083       .  S
C2493      C2494   1.417       .  A
C2494      N2495   1.433       .  S
N2495      H2499   1.046       .  S
N2495      H2500   1.046       .  S
N2498      H2501   1.045       .  S
N2498      H2502   1.046       .  S
C2503      C2504   1.410       .  A
C2503      C2508   1.406       .  A
C2503      H2510   1.083       .  S
C2504      C2505   1.420       .  A
C2505      C2506   1.401       .  A
C2505      N2512   1.433       .  S
C2506      C2507   1.397       .  A
C2506      H2511   1.084       .  S
C2507      C2508   1.406       .  A
C2508      N2509   1.437       .  S
N2509      H2513   1.045       .  S
N2509      H2514   1.046       .  S
N2512      H2515   1.046       .  S
N2512      H2516   1.046       .  S
C2517      C2518   1.408       .  A
C2517      C2522   1.397       .  A
C2517      H2524   1.083       .  S
C2518      C2519   1.412       .  A
C2519      C2520   1.404       .  A
C2519      N2526   1.432       .  S
C2520      C2521   1.402       .  A
C2520      H2525   1.084       .  S
C2521      C2522   1.413       .  A
C2522      N2523   1.439       .  S
N2523      H2527   1.046       .  S
N2523      H2528   1.043       .  S
N2526      H2529   1.046       .  S
N2526      H2530   1.046       .  S
C2531      C2532   1.409       .  A
C2531      C2536   1.398       .  A
C2531      H2538   1.083       .  S
C2532      C2533   1.414       .  A
C2533      C2534   1.402       .  A
C2533      N2540   1.432       .  S
C2534      C2535   1.401       .  A
C2534      H2539   1.084       .  S
C2535      C2536   1.412       .  A
N2537      H2541   1.045       .  S
N2537      H2542   1.043       .  S
N2540      H2543   1.046       .  S
N2540      H2544   1.046       .  S
