geometry optimzed in LAMMPS
_audit_creation_date              2020-12-01 
_audit_creation_method            'lammps2cif' 
_symmetry_space_group_name_H-M    'P1' 
_symmetry_Int_Tables_number       1 
_symmetry_cell_setting            triclinic 
loop_ 
_symmetry_equiv_pos_as_xyz 
  x,y,z 
_cell_length_a                    44.87901103 
_cell_length_b                    45.36587838064229 
_cell_length_c                    45.29727146415332 
_cell_angle_alpha                 90.01181446027059 
_cell_angle_beta                  90.1452760815171 
_cell_angle_gamma                 90.03207948514459 
loop_ 
_atom_site_label 
_atom_site_type_symbol 
_atom_site_fract_x 
_atom_site_fract_y 
_atom_site_fract_z 
_atom_site_charge 
In1        In  0.02595343  0.65565258  0.84111418     1.36900
C2          C  0.97495746  0.65053369  0.87048017     0.77100
O3          O  0.04874831  0.63555818  0.88021324    -0.61400
O4          O  0.06213595  0.67837227  0.86764392    -0.52300
C5          C  0.05196242  0.61678137  0.80530948     0.69700
O6          O  0.02547321  0.61361957  0.81413006    -0.47100
C7          C  0.01304073  0.69795189  0.80239277     0.74400
O8          O  0.98841374  0.62848012  0.86007625    -0.59000
O9          O  0.02703646  0.70311636  0.82605659    -0.49100
O10         O  0.98743994  0.67484733  0.86542606    -0.55400
C11         C  0.06599633  0.65690879  0.88499993     0.84600
O12         O  0.06456671  0.63984879  0.81464465    -0.57300
O13         O  0.00554285  0.67139259  0.79882526    -0.60600
In14       In  0.15284811  0.51775105  0.68358604     1.36900
C15         C  0.15096568  0.46795217  0.65269945     0.77100
O16         O  0.12834900  0.54003073  0.64613655    -0.61400
O17         O  0.17221126  0.55397181  0.65599124    -0.52300
C18         C  0.11903212  0.54407801  0.72415756     0.69700
O19         O  0.11009195  0.52136416  0.71047838    -0.47100
C20         C  0.19778996  0.50268649  0.71918511     0.74400
O21         O  0.12957527  0.47574139  0.66914332    -0.59000
O22         O  0.20060944  0.52157657  0.69885800    -0.49100
O23         O  0.17239708  0.48585729  0.65200586    -0.55400
C24         C  0.14955865  0.55715327  0.63975407     0.84600
O25         O  0.14432129  0.55303917  0.71627251    -0.57300
O26         O  0.17218200  0.49129557  0.72075895    -0.60600
In27       In  0.97233734  0.82447328  0.67130236     1.36900
C28         C  0.02329741  0.85457192  0.66908376     0.77100
O29         O  0.94754722  0.85835750  0.64513751    -0.61400
O30         O  0.94143870  0.85770731  0.69159156    -0.52300
C31         C  0.94541162  0.78777199  0.63401240     0.69700
O32         O  0.97020311  0.79960589  0.62804465    -0.47100
C33         C  0.98408958  0.78633308  0.71464085     0.74400
O34         O  0.01492276  0.83768662  0.64847243    -0.59000
O35         O  0.96395684  0.80568287  0.71677704    -0.49100
O36         O  0.00569423  0.85554726  0.69068181    -0.55400
C37         C  0.93531123  0.86995018  0.66727144     0.84600
O38         O  0.93506816  0.79472869  0.65895244    -0.57300
O39         O  0.99777475  0.78663482  0.69033962    -0.60600
In40       In  0.84252107  0.67120138  0.53029984     1.36900
C41         C  0.84730349  0.63883369  0.48190214     0.77100
O42         O  0.86556059  0.63334586  0.55276417    -0.61400
O43         O  0.82140211  0.64358615  0.56553042    -0.52300
C44         C  0.87661546  0.70767123  0.56099753     0.69700
O45         O  0.88465378  0.69799278  0.53599894    -0.47100
C46         C  0.80085224  0.70920462  0.51284760     0.74400
O47         O  0.86848362  0.65486862  0.49106425    -0.59000
O48         O  0.79500608  0.68704696  0.52874252    -0.49100
O49         O  0.82393062  0.64046227  0.49718297    -0.55400
C50         C  0.84372299  0.62695928  0.56906628     0.84600
O51         O  0.85121151  0.69915925  0.56914745    -0.57300
O52         O  0.82794766  0.71158822  0.50579974    -0.60600
In53       In  0.33720882  0.46531201  0.83933949     1.36900
C54         C  0.36370970  0.51805100  0.84162262     0.77100
O55         O  0.37856557  0.44606549  0.85941623    -0.61400
O56         O  0.36736466  0.43330611  0.81582822    -0.52300
C57         C  0.30252699  0.43717585  0.87824193     0.69700
O58         O  0.30900908  0.46418104  0.88067259    -0.47100
C59         C  0.29491384  0.47481996  0.79900060     0.74400
O60         O  0.35571265  0.50440235  0.86459415    -0.59000
O61         O  0.31805646  0.45998802  0.79328358    -0.49100
O62         O  0.35812564  0.50464008  0.81791562    -0.55400
C63         C  0.38535458  0.43076293  0.83721809     0.84600
O64         O  0.31467514  0.42467599  0.85649412    -0.57300
O65         O  0.29368831  0.48446954  0.82506816    -0.60600
In66       In  0.17389433  0.34059207  0.97543183     1.36900
C67         C  0.14392316  0.34826106  0.02579939     0.77100
O68         O  0.13855065  0.36313920  0.94827712    -0.61400
O69         O  0.14287673  0.31691888  0.94451952    -0.52300
C70         C  0.21697759  0.37104258  0.94809586     0.69700
O71         O  0.20169553  0.38186812  0.96888133    -0.47100
C72         C  0.20795817  0.29638151  0.99314149     0.74400
O73         O  0.15927467  0.36872731  0.01445406    -0.59000
O74         O  0.18979033  0.29404693  0.97189974    -0.49100
O75         O  0.14359299  0.32484519  0.01091466    -0.55400
C76         C  0.12876239  0.33967917  0.93688363     0.84600
O77         O  0.20970421  0.34510970  0.94134426    -0.57300
O78         O  0.20835041  0.32136995  0.00539426    -0.60600
In79       In  0.48140276  0.33567046  0.15146654     1.36900
C80         C  0.53127293  0.36745763  0.14837938     0.77100
O81         O  0.45395626  0.37267464  0.13288603    -0.61400
O82         O  0.44987925  0.36231135  0.17841535    -0.52300
C83         C  0.45150492  0.29723603  0.11798062     0.69700
O84         O  0.47435868  0.31050976  0.10833430    -0.47100
C85         C  0.49773943  0.29749730  0.19246105     0.74400
O86         O  0.52217066  0.35252130  0.12651493    -0.59000
O87         O  0.47981811  0.31830335  0.19736369    -0.49100
O88         O  0.51473880  0.36588131  0.17066940    -0.55400
C89         C  0.44209326  0.37879458  0.15741421     0.84600
O90         O  0.44403188  0.30482566  0.14361795    -0.57300
O91         O  0.50799981  0.29667980  0.16655093    -0.60600
In92       In  0.34162293  0.17290835  0.03064407     1.36900
C93         C  0.34603499  0.13948337  0.98224253     0.77100
O94         O  0.36489400  0.13876400  0.05800930    -0.61400
O95         O  0.31794105  0.14272116  0.06162573    -0.52300
C96         C  0.37948444  0.21217459  0.05365261     0.69700
O97         O  0.38206987  0.20324761  0.02734953    -0.47100
C98         C  0.29631409  0.20874286  0.01997029     0.74400
O99         O  0.36746516  0.15476489  0.99198300    -0.59000
O100        O  0.29827945  0.19396073  0.04342510    -0.49100
O101        O  0.32256127  0.14164703  0.99731453    -0.55400
C102        C  0.34122329  0.12943931  0.06973889     0.84600
O103        O  0.35787014  0.20094110  0.06726095    -0.57300
O104        O  0.31754255  0.20525380  0.00215664    -0.60600
In105      In  0.67335539  0.83968248  0.47014862     1.36900
C106        C  0.64704207  0.84444895  0.52229479     0.77100
O107        O  0.63353724  0.86194276  0.45045545    -0.61400
O108        O  0.64044170  0.81675765  0.44039850    -0.52300
C109        C  0.70729690  0.87536637  0.43812048     0.69700
O110        O  0.69908563  0.88180691  0.46403547    -0.47100
C111        C  0.71411907  0.79877845  0.48208976     0.74400
O112        O  0.66004107  0.86603645  0.51027089    -0.59000
O113        O  0.69107922  0.79341439  0.46688029    -0.49100
O114        O  0.64851087  0.82070310  0.50797519    -0.55400
C115        C  0.62440881  0.83940449  0.43692566     0.84600
O116        O  0.69800480  0.85075488  0.42900887    -0.57300
O117        O  0.71600606  0.82498920  0.49121330    -0.60600
In118      In  0.83053674  0.97246861  0.33703624     1.36900
C119        C  0.86027441  0.02313810  0.33795434     0.77100
O120        O  0.86635160  0.94949295  0.36258418    -0.61400
O121        O  0.86220320  0.93967743  0.31701864    -0.52300
C122        C  0.79151477  0.94515846  0.37121836     0.69700
O123        O  0.80305625  0.96960523  0.37850831    -0.47100
C124        C  0.79039417  0.98476175  0.29613599     0.74400
O125        O  0.84742837  0.01303325  0.36063998    -0.59000
O126        O  0.81274331  0.96859638  0.29084011    -0.49100
O127        O  0.85732410  0.00754458  0.31513652    -0.55400
C128        C  0.87629963  0.93528424  0.34080376     0.84600
O129        O  0.80065756  0.93492070  0.34695230    -0.57300
O130        O  0.78913470  0.99496966  0.32202106    -0.60600
In131      In  0.65736614  0.02708814  0.17094675     1.36900
C132        C  0.65832715  0.97706219  0.14015621     0.77100
O133        O  0.63333544  0.04673729  0.13200482    -0.61400
O134        O  0.67713825  0.06154611  0.14172298    -0.52300
C135        C  0.62179304  0.05592763  0.20816887     0.69700
O136        O  0.61537795  0.03022535  0.19918031    -0.47100
C137        C  0.70069937  0.01448283  0.20928946     0.74400
O138        O  0.63584824  0.98456772  0.15533773    -0.59000
O139        O  0.70416977  0.03248809  0.18829750    -0.49100
O140        O  0.67957911  0.99511572  0.14128487    -0.55400
C141        C  0.65469782  0.06337821  0.12485688     0.84600
O142        O  0.64538821  0.06627836  0.19724278    -0.57300
O143        O  0.67499410  0.00325338  0.21059072    -0.60600
In144      In  0.53047560  0.17106350  0.32435619     1.36900
C145        C  0.47832729  0.17220732  0.35260510     0.77100
O146        O  0.55148307  0.14916877  0.36345723    -0.61400
O147        O  0.56629483  0.19205406  0.35220594    -0.52300
C148        C  0.55812329  0.13174447  0.29019133     0.69700
O149        O  0.53283395  0.12642542  0.30135935    -0.47100
C150        C  0.52071958  0.21252114  0.28423510     0.74400
O151        O  0.48693366  0.14997002  0.33808506    -0.59000
O152        O  0.53535338  0.21736658  0.30756590    -0.49100
O153        O  0.49636377  0.19339618  0.35212075    -0.55400
C154        C  0.56869701  0.17034091  0.36945092     0.84600
O155        O  0.56821800  0.15687562  0.29647838    -0.57300
O156        O  0.51100104  0.18654205  0.28167151    -0.60600
In157      In  0.54102892  0.32613498  0.82761029     1.36900
C158        C  0.49043182  0.35650639  0.82988971     0.77100
O159        O  0.56214811  0.36083526  0.85542536    -0.61400
O160        O  0.57339455  0.35976590  0.81004865    -0.52300
C161        C  0.56769257  0.28684222  0.86268728     0.69700
O162        O  0.54210760  0.29707521  0.86842521    -0.47100
C163        C  0.52912159  0.29004072  0.78283882     0.74400
O164        O  0.49849378  0.33927510  0.85040246    -0.59000
O165        O  0.55082793  0.30781962  0.78221063    -0.49100
O166        O  0.50817814  0.35773280  0.80839512    -0.55400
C167        C  0.57647920  0.37261868  0.83468240     0.84600
O168        O  0.57896074  0.29707656  0.83942654    -0.57300
O169        O  0.51371016  0.29131612  0.80605267    -0.60600
In170      In  0.66493304  0.16703607  0.96971884     1.36900
C171        C  0.65918040  0.13681730  0.01992855     0.77100
O172        O  0.64277330  0.12995787  0.94574818    -0.61400
O173        O  0.68890632  0.13692792  0.93839827    -0.52300
C174        C  0.63081302  0.20347238  0.93808108     0.69700
O175        O  0.62215196  0.19271154  0.96237472    -0.47100
C176        C  0.70737810  0.20484544  0.98632501     0.74400
O177        O  0.63822886  0.15272995  0.01006271    -0.59000
O178        O  0.71258783  0.18310959  0.96969768    -0.49100
O179        O  0.68203115  0.13662466  0.00396086    -0.55400
C180        C  0.66618819  0.12137331  0.93301517     0.84600
O181        O  0.65659962  0.19534105  0.93058383    -0.57300
O182        O  0.68047620  0.20718442  0.99405626    -0.60600
In183      In  0.68371691  0.47526333  0.16374925     1.36900
C184        C  0.65339477  0.52534251  0.16421916     0.77100
O185        O  0.64578490  0.45634980  0.13768527    -0.61400
O186        O  0.65387716  0.44005911  0.18092539    -0.52300
C187        C  0.72069926  0.44688175  0.12867103     0.69700
O188        O  0.70925987  0.47127806  0.12109112    -0.47100
C189        C  0.72161890  0.48682175  0.20722128     0.74400
O190        O  0.67040648  0.51846667  0.14301478    -0.59000
O191        O  0.69892713  0.47069824  0.21078592    -0.49100
O192        O  0.65262472  0.50675223  0.18481816    -0.55400
C193        C  0.63763461  0.43927889  0.15811117     0.84600
O194        O  0.71314615  0.43760341  0.15378669    -0.57300
O195        O  0.72460053  0.49715721  0.18150275    -0.60600
In196      In  0.83449492  0.33435409  0.03439400     1.36900
C197        C  0.86317014  0.33691271  0.98285105     0.77100
O198        O  0.87101274  0.35989951  0.05622996    -0.61400
O199        O  0.86483055  0.31531538  0.06911107    -0.52300
C200        C  0.79938826  0.37165784  0.06265097     0.69700
O201        O  0.80689405  0.37564721  0.03601325    -0.47100
C202        C  0.79435484  0.29249343  0.02267339     0.74400
O203        O  0.84992755  0.35894453  0.99372898    -0.59000
O204        O  0.81829378  0.28698533  0.03643965    -0.49100
O205        O  0.86179624  0.31396579  0.99841503    -0.55400
C206        C  0.87906848  0.33913301  0.07286173     0.84600
O207        O  0.80904955  0.34818611  0.07414605    -0.57300
O208        O  0.79130951  0.31913786  0.01541495    -0.60600
In209      In  0.48045816  0.15514749  0.66381335     1.36900
C210        C  0.52957257  0.15142751  0.63158663     0.77100
O211        O  0.45302908  0.13124483  0.62935585    -0.61400
O212        O  0.44752391  0.17737025  0.63417112    -0.52300
C213        C  0.45676095  0.12096494  0.70557665     0.69700
O214        O  0.47714102  0.11173578  0.68871283    -0.47100
C215        C  0.49664162  0.20043137  0.69779059     0.74400
O216        O  0.52267241  0.13170883  0.65011752    -0.59000
O217        O  0.47266350  0.19995363  0.68315470    -0.49100
O218        O  0.51103779  0.17217576  0.62950810    -0.55400
C219        C  0.44070329  0.15441394  0.61999652     0.84600
O220        O  0.44880812  0.14710795  0.70062532    -0.57300
O221        O  0.51279616  0.17790580  0.69450076    -0.60600
In222      In  0.34976667  0.03202593  0.82882805     1.36900
C223        C  0.35053383  0.98037572  0.85651906     0.77100
O224        O  0.37059620  0.05075574  0.87010689    -0.61400
O225        O  0.32706411  0.06462377  0.85854872    -0.52300
C226        C  0.38979560  0.05910383  0.79479341     0.69700
O227        O  0.39257476  0.03248508  0.80251653    -0.47100
C228        C  0.30684065  0.02051515  0.78950927     0.74400
O229        O  0.37355140  0.99104046  0.84457272    -0.59000
O230        O  0.30316369  0.03809324  0.81081698    -0.49100
O231        O  0.32759629  0.99606350  0.85364491    -0.55400
C232        C  0.34824842  0.06620438  0.87686585     0.84600
O233        O  0.36681128  0.07160401  0.80469791    -0.57300
O234        O  0.33262334  0.00960870  0.78799768    -0.60600
In235      In  0.32618918  0.83666019  0.52886113     1.36900
C236        C  0.35138841  0.83583244  0.47547107     0.77100
O237        O  0.36495230  0.86071429  0.54870827    -0.61400
O238        O  0.35869382  0.81591173  0.56015485    -0.52300
C239        C  0.28949834  0.87162041  0.55899496     0.69700
O240        O  0.29974426  0.87919897  0.53405705    -0.47100
C241        C  0.28634616  0.79420149  0.52255088     0.74400
O242        O  0.33732260  0.85818424  0.48475216    -0.59000
O243        O  0.31004640  0.79058752  0.53721213    -0.49100
O244        O  0.35194091  0.81478342  0.49347370    -0.55400
C245        C  0.37416242  0.83893396  0.56341761     0.84600
O246        O  0.29914596  0.84724730  0.56814658    -0.57300
O247        O  0.28400918  0.81899062  0.51012923    -0.60600
In248      In  0.17240851  0.96880042  0.66847513     1.36900
C249        C  0.13807844  0.01648373  0.66473591     0.77100
O250        O  0.13510066  0.94369739  0.64720133    -0.61400
O251        O  0.14476845  0.93472329  0.69207824    -0.52300
C252        C  0.20892949  0.94144949  0.63106099     0.69700
O253        O  0.19861865  0.96685623  0.62572105    -0.47100
C254        C  0.21275099  0.98571017  0.70861419     0.74400
O255        O  0.15196689  0.00639878  0.64269090    -0.59000
O256        O  0.19191413  0.96795800  0.71465391    -0.49100
O257        O  0.14254930  0.00256366  0.68837706    -0.55400
C258        C  0.12831258  0.92931633  0.67004426     0.84600
O259        O  0.20051580  0.93074689  0.65538091    -0.57300
O260        O  0.21270239  0.99465491  0.68223877    -0.60600
In261      In  0.15336199  0.66802507  0.49001125     1.36900
C262        C  0.14740575  0.63476193  0.53811343     0.77100
O263        O  0.13153076  0.63318502  0.46233892    -0.61400
O264        O  0.17748229  0.64151061  0.45589884    -0.52300
C265        C  0.11909612  0.70871063  0.46526430     0.69700
O266        O  0.11229054  0.69682751  0.48959133    -0.47100
C267        C  0.19631628  0.70513867  0.50557233     0.74400
O268        O  0.12518087  0.64623149  0.52539100    -0.59000
O269        O  0.20101756  0.68298081  0.48934878    -0.49100
O270        O  0.17206372  0.64083166  0.52644782    -0.55400
C271        C  0.15497420  0.62640711  0.44872042     0.84600
O272        O  0.14269741  0.69899907  0.45376487    -0.57300
O273        O  0.16977317  0.70782149  0.51432924    -0.60600
In274      In  0.03114201  0.82997797  0.35602644     1.36900
C275        C  0.98135081  0.86165010  0.35383388     0.77100
O276        O  0.05520288  0.86764057  0.37848297    -0.61400
O277        O  0.06507859  0.85893293  0.33378006    -0.52300
C278        C  0.05597344  0.79494323  0.39607909     0.69700
O279        O  0.03106414  0.80708370  0.40087123    -0.47100
C280        C  0.01905240  0.78976233  0.31459860     0.74400
O281        O  0.98884643  0.84721522  0.37658495    -0.59000
O282        O  0.04240362  0.80529746  0.31435018    -0.49100
O283        O  0.99941639  0.85953829  0.33264151    -0.55400
C284        C  0.07014327  0.87489217  0.35611100     0.84600
O285        O  0.06668800  0.80013205  0.37100434    -0.57300
O286        O  0.00186218  0.79475776  0.33601812    -0.60600
In287      In  0.85200710  0.52298029  0.33638360     1.36900
C288        C  0.85649406  0.47227943  0.36503692     0.77100
O289        O  0.87393207  0.54709761  0.37364704    -0.61400
O290        O  0.82726681  0.55219879  0.36763614    -0.52300
C291        C  0.88628807  0.55303940  0.29911321     0.69700
O292        O  0.89387773  0.52784878  0.30854623    -0.47100
C293        C  0.81036619  0.51015600  0.29687264     0.74400
O294        O  0.87904330  0.48491113  0.35410245    -0.59000
O295        O  0.80572010  0.52776815  0.31799197    -0.49100
O296        O  0.83223158  0.48553213  0.36093555    -0.55400
C297        C  0.85010274  0.55875116  0.38257399     0.84600
O298        O  0.86221997  0.56249044  0.30972242    -0.57300
O299        O  0.83597605  0.49866899  0.29667439    -0.60600
In300      In  0.97963718  0.66433194  0.18133265     1.36900
C301        C  0.02865871  0.66258085  0.14823077     0.77100
O302        O  0.95458680  0.64040203  0.14567820    -0.61400
O303        O  0.94665549  0.68619312  0.15090257    -0.52300
C304        C  0.95379462  0.62628182  0.21812028     0.69700
O305        O  0.97933649  0.62156099  0.20735601    -0.47100
C306        C  0.99197943  0.70591564  0.22143371     0.74400
O307        O  0.02033297  0.64098965  0.16381860    -0.59000
O308        O  0.97116365  0.70835751  0.20277950    -0.49100
O309        O  0.01231610  0.68505609  0.15057793    -0.55400
C310        C  0.94088564  0.66293027  0.13663651     0.84600
O311        O  0.94217311  0.65023537  0.20994307    -0.57300
O312        O  0.00700802  0.68256107  0.21871405    -0.60600
In313      In  0.66460609  0.96769743  0.82736435     1.36900
C314        C  0.66379569  0.01669376  0.85950764     0.77100
O315        O  0.64132014  0.94457758  0.86404424    -0.61400
O316        O  0.68709050  0.93532280  0.85693446    -0.52300
C317        C  0.62507083  0.94195014  0.79199384     0.69700
O318        O  0.62125114  0.96791631  0.80141035    -0.47100
C319        C  0.70681513  0.97911269  0.78837778     0.74400
O320        O  0.64272843  0.00952802  0.84234422    -0.59000
O321        O  0.70720646  0.95628025  0.80423443    -0.49100
O322        O  0.68524454  0.99871348  0.85984608    -0.55400
C323        C  0.66402585  0.93014228  0.87195788     0.84600
O324        O  0.64898566  0.93006917  0.80026554    -0.57300
O325        O  0.68521590  0.99619392  0.79304241    -0.60600
In326      In  0.53055891  0.84084997  0.66779015     1.36900
C327        C  0.48012548  0.83965218  0.63689161     0.77100
O328        O  0.55430029  0.86407211  0.63096266    -0.61400
O329        O  0.56698795  0.82032951  0.64109439    -0.52300
C330        C  0.55589798  0.87701492  0.70661168     0.69700
O331        O  0.53326431  0.88472133  0.69175235    -0.47100
C332        C  0.51601292  0.79991052  0.70664566     0.74400
O333        O  0.48889330  0.86241782  0.65055328    -0.59000
O334        O  0.53378368  0.79490223  0.68559843    -0.49100
O335        O  0.49733432  0.81786015  0.63903357    -0.55400
C336        C  0.57114235  0.84264089  0.62500137     0.84600
O337        O  0.56535892  0.85148135  0.70087850    -0.57300
O338        O  0.50557496  0.82573663  0.70745893    -0.60600
In339      In  0.82749058  0.02181418  0.65365073     1.36900
C340        C  0.86012401  0.97293158  0.65479741     0.77100
O341        O  0.86469265  0.04635002  0.63170359    -0.61400
O342        O  0.85463695  0.05658227  0.67613967    -0.52300
C343        C  0.78919108  0.04466458  0.61494495     0.69700
O344        O  0.80721400  0.02449775  0.60782572    -0.47100
C345        C  0.79075131  0.00873551  0.69717123     0.74400
O346        O  0.84152816  0.97800610  0.63439564    -0.59000
O347        O  0.80763853  0.03096746  0.69769682    -0.49100
O348        O  0.86160133  0.99292391  0.67402828    -0.55400
C349        C  0.87145199  0.06109688  0.65437495     0.84600
O350        O  0.79083170  0.05252476  0.64154488    -0.57300
O351        O  0.79293540  0.99298370  0.67428676    -0.60600
In352      In  0.67947211  0.15903573  0.52028581     1.36900
C353        C  0.64851480  0.16226380  0.46996524     0.77100
O354        O  0.64106454  0.13549651  0.54135383    -0.61400
O355        O  0.65179486  0.17855674  0.55621208    -0.52300
C356        C  0.71246368  0.11741489  0.54483595     0.69700
O357        O  0.70277756  0.11479599  0.51870889    -0.47100
C358        C  0.72048908  0.20040379  0.51424296     0.74400
O359        O  0.66477721  0.14046506  0.47638996    -0.59000
O360        O  0.69711606  0.20432955  0.52911041    -0.49100
O361        O  0.64918853  0.18268404  0.48876996    -0.55400
C362        C  0.63473832  0.15656661  0.55840028     0.84600
O363        O  0.70602241  0.14135211  0.55738886    -0.57300
O364        O  0.72253017  0.17554664  0.50197466    -0.60600
In365      In  0.46965695  0.67242379  0.83425131     1.36900
C366        C  0.52188250  0.64518991  0.83904243     0.77100
O367        O  0.45211376  0.63314276  0.85831914    -0.61400
O368        O  0.43381607  0.64223799  0.81620602    -0.52300
C369        C  0.44010621  0.70985283  0.86849996     0.69700
O370        O  0.46668334  0.70220531  0.87395535    -0.47100
C371        C  0.48314723  0.71057217  0.79167510     0.74400
O372        O  0.50971158  0.65798425  0.86071494    -0.59000
O373        O  0.46886406  0.68704468  0.78647602    -0.49100
O374        O  0.50736403  0.64677150  0.81523797    -0.55400
C375        C  0.43380613  0.62554110  0.83863075     0.84600
O376        O  0.42902433  0.69794751  0.84584982    -0.57300
O377        O  0.49021028  0.71410663  0.81840302    -0.60600
In378      In  0.34274550  0.83299139  0.96954336     1.36900
C379        C  0.34653341  0.86210330  0.02074573     0.77100
O380        O  0.36592633  0.87023438  0.94709089    -0.61400
O381        O  0.32058051  0.86240694  0.93642704    -0.52300
C382        C  0.37662616  0.79613127  0.93881939     0.69700
O383        O  0.38502892  0.80655325  0.96343178    -0.47100
C384        C  0.30117144  0.79338711  0.98185800     0.74400
O385        O  0.36860534  0.84842153  0.01006776    -0.59000
O386        O  0.29546159  0.81648983  0.96730033    -0.49100
O387        O  0.32324985  0.86046651  0.00527814    -0.55400
C388        C  0.34354077  0.87786274  0.93203879     0.84600
O389        O  0.35145784  0.80507117  0.93026591    -0.57300
O390        O  0.32768704  0.79140095  0.99101197    -0.60600
In391      In  0.33607661  0.53116846  0.17209118     1.36900
C392        C  0.36473539  0.48015420  0.16732130     0.77100
O393        O  0.37326961  0.55061544  0.14611698    -0.61400
O394        O  0.36821789  0.56436459  0.19064299    -0.52300
C395        C  0.29721101  0.56099865  0.13884898     0.69700
O396        O  0.30780670  0.53635244  0.13106152    -0.47100
C397        C  0.30085913  0.51708365  0.21659220     0.74400
O398        O  0.34711397  0.48948722  0.14759718    -0.59000
O399        O  0.32115357  0.53626945  0.21895436    -0.49100
O400        O  0.36721141  0.49702241  0.18934579    -0.55400
C401        C  0.38286721  0.56645660  0.16691719     0.84600
O402        O  0.30663030  0.56987591  0.16349716    -0.57300
O403        O  0.29897805  0.50501498  0.19156419    -0.60600
In404      In  0.17828330  0.66298758  0.03442286     1.36900
C405        C  0.14768060  0.65997596  0.98424841     0.77100
O406        O  0.13852955  0.64182992  0.05540701    -0.61400
O407        O  0.14860838  0.68601937  0.06719143    -0.52300
C408        C  0.21505748  0.62822117  0.06523475     0.69700
O409        O  0.20525799  0.62104563  0.04000449    -0.47100
C410        C  0.21646388  0.70405074  0.01639440     0.74400
O411        O  0.16129631  0.63779650  0.99466673    -0.59000
O412        O  0.19613958  0.70913260  0.03498193    -0.49100
O413        O  0.14998528  0.68295217  0.99963533    -0.55400
C414        C  0.13129758  0.66423801  0.07027987     0.84600
O415        O  0.20565053  0.65282199  0.07427374    -0.57300
O416        O  0.21799761  0.67753063  0.00807237    -0.60600
In417      In  0.85146232  0.32835539  0.48115485     1.36900
C418        C  0.85132673  0.35827436  0.53152927     0.77100
O419        O  0.87728236  0.36503813  0.46079752    -0.61400
O420        O  0.83227524  0.35829153  0.44743163    -0.52300
C421        C  0.88334950  0.29234202  0.44783389     0.69700
O422        O  0.89285140  0.30072467  0.47294094    -0.47100
C423        C  0.80916223  0.28991494  0.49401449     0.74400
O424        O  0.87290275  0.34165725  0.52443261    -0.59000
O425        O  0.80449660  0.31242500  0.47824160    -0.49100
O426        O  0.83046597  0.35910646  0.51286580    -0.55400
C427        C  0.85602817  0.37302077  0.44430848     0.84600
O428        O  0.85856600  0.30307941  0.44051604    -0.57300
O429        O  0.83563757  0.28727896  0.50320722    -0.60600
In430      In  0.97004351  0.17456156  0.33134615     1.36900
C431        C  0.02026440  0.14350832  0.33200581     0.77100
O432        O  0.94971494  0.13534622  0.35310126    -0.61400
O433        O  0.93331151  0.14720833  0.31089747    -0.52300
C434        C  0.94522619  0.21155445  0.36969339     0.69700
O435        O  0.97074255  0.20051203  0.37383844    -0.47100
C436        C  0.98462336  0.21450399  0.29120166     0.74400
O437        O  0.01006113  0.15584312  0.35490681    -0.59000
O438        O  0.96741944  0.19322682  0.28509901    -0.49100
O439        O  0.00489970  0.14784445  0.30914344    -0.55400
C440        C  0.93203384  0.12933484  0.33227496     0.84600
O441        O  0.93252297  0.20296334  0.34631330    -0.57300
O442        O  0.99404770  0.21487188  0.31743328    -0.60600
In443      In  0.16792990  0.47583162  0.33977886     1.36900
C444        C  0.16395916  0.52451675  0.37225257     0.77100
O445        O  0.14347044  0.44851709  0.37298742    -0.61400
O446        O  0.19057679  0.44557581  0.37169921    -0.52300
C447        C  0.13032771  0.45214747  0.30108237     0.69700
O448        O  0.12678983  0.47805526  0.31072639    -0.47100
C449        C  0.21267060  0.48712247  0.30341825     0.74400
O450        O  0.14255601  0.51532320  0.35652027    -0.59000
O451        O  0.21181670  0.46425079  0.31919326    -0.49100
O452        O  0.18684144  0.50855044  0.37121718    -0.55400
C453        C  0.16673652  0.43712684  0.38371208     0.84600
O454        O  0.15299789  0.43915083  0.31108831    -0.57300
O455        O  0.19077490  0.50421987  0.30647840    -0.60600
In456      In  0.03406886  0.35273568  0.17675655     1.36900
C457        C  0.98327569  0.34983480  0.14716324     0.77100
O458        O  0.05433846  0.37683255  0.13802712    -0.61400
O459        O  0.07090431  0.33456094  0.14949514    -0.52300
C460        C  0.06047253  0.38727921  0.21593692     0.69700
O461        O  0.03669224  0.39525835  0.20306069    -0.47100
C462        C  0.01999829  0.30904774  0.21328016     0.74400
O463        O  0.98944686  0.37186949  0.16331765    -0.59000
O464        O  0.03750984  0.30550509  0.19175468    -0.49100
O465        O  0.00349988  0.33074429  0.14585134    -0.55400
C466        C  0.07225995  0.35622932  0.13200888     0.84600
O467        O  0.07072815  0.36288127  0.20743832    -0.57300
O468        O  0.01008407  0.33490340  0.21606078    -0.60600
In469      In  0.82950762  0.65593495  0.98616953     1.36900
C470        C  0.86144496  0.65617710  0.03566090     0.77100
O471        O  0.86554997  0.63156833  0.96275242    -0.61400
O472        O  0.85775212  0.67628199  0.95143000    -0.52300
C473        C  0.79369426  0.61905252  0.95794733     0.69700
O474        O  0.80493851  0.61220581  0.98269616    -0.47100
C475        C  0.79155946  0.69887669  0.99591231     0.74400
O476        O  0.84370248  0.63541832  0.02936887    -0.59000
O477        O  0.81337450  0.70164588  0.97865032    -0.49100
O478        O  0.86209367  0.67651899  0.01676594    -0.55400
C479        C  0.87255345  0.65317440  0.94663408     0.84600
O480        O  0.79960795  0.64475368  0.94934585    -0.57300
O481        O  0.78991015  0.67441462  0.00909509    -0.60600
In482      In  0.67199071  0.53249335  0.84639058     1.36900
C483        C  0.64290931  0.48157255  0.84483959     0.77100
O484        O  0.63399827  0.55568433  0.86879495    -0.61400
O485        O  0.64329438  0.56687820  0.82455646    -0.52300
C486        C  0.71115141  0.55453258  0.88479499     0.69700
O487        O  0.69581600  0.53193216  0.89063463    -0.47100
C488        C  0.71050441  0.51936744  0.80376210     0.74400
O489        O  0.65526806  0.49085553  0.86817285    -0.59000
O490        O  0.69195637  0.54022981  0.80141017    -0.49100
O491        O  0.64458571  0.49888545  0.82322282    -0.55400
C492        C  0.62677351  0.57093689  0.84668921     0.84600
O493        O  0.70561357  0.56574838  0.85991545    -0.57300
O494        O  0.70943094  0.50602524  0.82813711    -0.60600
In495      In  0.66386804  0.82864898  0.02697609     1.36900
C496        C  0.66106702  0.85688717  0.97595110     0.77100
O497        O  0.63929894  0.86483183  0.04993411    -0.61400
O498        O  0.68486647  0.85877770  0.06058095    -0.52300
C499        C  0.63076446  0.78882244  0.05438927     0.69700
O500        O  0.62111596  0.80309340  0.03233279    -0.47100
C501        C  0.70585458  0.79111282  0.01249919     0.74400
O502        O  0.63895581  0.84308771  0.98632293    -0.59000
O503        O  0.71098035  0.81312132  0.02891121    -0.49100
O504        O  0.68427655  0.85575850  0.99156306    -0.55400
C505        C  0.66131349  0.87338474  0.06495021     0.84600
O506        O  0.65676371  0.79559409  0.06254524    -0.57300
O507        O  0.67944310  0.78896099  0.00304888    -0.60600
In508      In  0.53689757  0.67118186  0.16292609     1.36900
C509        C  0.48582932  0.64189009  0.16007554     0.77100
O510        O  0.55788095  0.63187831  0.14198100    -0.61400
O511        O  0.57269673  0.64417978  0.18479433    -0.52300
C512        C  0.56421350  0.70689674  0.12548220     0.69700
O513        O  0.53744076  0.69894473  0.12181758    -0.47100
C514        C  0.52204697  0.70969408  0.20445193     0.74400
O515        O  0.49866739  0.65132319  0.13714291    -0.59000
O516        O  0.53762290  0.68711695  0.20993751    -0.49100
O517        O  0.49912531  0.64744764  0.18390559    -0.55400
C518        C  0.57533871  0.62673392  0.16317164     0.84600
O519        O  0.57677401  0.69644849  0.14810143    -0.57300
O520        O  0.51518613  0.71293563  0.17761324    -0.60600
In521      In  0.46848348  0.83526433  0.33106501     1.36900
C522        C  0.51656129  0.83723293  0.36596326     0.77100
O523        O  0.44042889  0.85825449  0.36475953    -0.61400
O524        O  0.43301799  0.81256837  0.35742198    -0.52300
C525        C  0.44236429  0.87047060  0.29174589     0.69700
O526        O  0.46605850  0.87808193  0.30503693    -0.47100
C527        C  0.48527173  0.79496126  0.29195453     0.74400
O528        O  0.50910741  0.85855924  0.34949366    -0.59000
O529        O  0.46698041  0.78926891  0.31234350    -0.49100
O530        O  0.49919769  0.81552673  0.36441721    -0.55400
C531        C  0.42578055  0.83550156  0.37154995     0.84600
O532        O  0.43250898  0.84567142  0.29947431    -0.57300
O533        O  0.49552499  0.82083160  0.29240863    -0.60600
In534      In  0.34377256  0.97407505  0.17084835     1.36900
C535        C  0.34511622  0.02590557  0.14377910     0.77100
O536        O  0.36857136  0.95400976  0.13263062    -0.61400
O537        O  0.32389033  0.94088182  0.13973303    -0.52300
C538        C  0.37862783  0.94364051  0.20723000     0.69700
O539        O  0.38710813  0.96758562  0.19559570    -0.47100
C540        C  0.30124066  0.98747381  0.20940821     0.74400
O541        O  0.36612593  0.01758144  0.16050375    -0.59000
O542        O  0.29646719  0.97084134  0.18745898    -0.49100
O543        O  0.32423421  0.00749298  0.14119257    -0.55400
C544        C  0.34713639  0.93805858  0.12422217     0.84600
O545        O  0.35264102  0.93583484  0.19992423    -0.57300
O546        O  0.32749650  0.99724692  0.21114035    -0.60600
In547      In  0.33146688  0.16413754  0.46767965     1.36900
C548        C  0.36441067  0.15729951  0.51638488     0.77100
O549        O  0.36521465  0.14392349  0.43742390    -0.61400
O550        O  0.36079750  0.19044220  0.43733031    -0.52300
C551        C  0.29326247  0.12909343  0.43964228     0.69700
O552        O  0.30881423  0.12001407  0.46110945    -0.47100
C553        C  0.29309728  0.20537099  0.48464115     0.74400
O554        O  0.34648583  0.13766638  0.50757601    -0.59000
O555        O  0.31087120  0.20883616  0.46340228    -0.49100
O556        O  0.36516561  0.17978544  0.50008097    -0.55400
C557        C  0.37382682  0.16815610  0.42683322     0.84600
O558        O  0.29730601  0.15581375  0.43326814    -0.57300
O559        O  0.29553679  0.18094412  0.49775989    -0.60600
In560      In  0.17104962  0.03120888  0.33657012     1.36900
C561        C  0.14302467  0.97999698  0.34505413     0.77100
O562        O  0.13398658  0.05556103  0.35876335    -0.61400
O563        O  0.13868075  0.06071834  0.31256693    -0.52300
C564        C  0.20855550  0.06165513  0.37039611     0.69700
O565        O  0.20014053  0.03589754  0.37704016    -0.47100
C566        C  0.21013090  0.01756484  0.29457740     0.74400
O567        O  0.15620573  0.99338410  0.36577658    -0.59000
O568        O  0.18833618  0.03457249  0.28992672    -0.49100
O569        O  0.14408036  0.99310264  0.32057370    -0.55400
C570        C  0.12439415  0.06760972  0.33556592     0.84600
O571        O  0.19767056  0.07138202  0.34667020    -0.57300
O572        O  0.21151969  0.00747150  0.32047530    -0.60600
In573      In  0.83996249  0.47508774  0.67695958     1.36900
C574        C  0.84571826  0.52378995  0.64474419     0.77100
O575        O  0.86449195  0.44921494  0.64249212    -0.61400
O576        O  0.81814544  0.44207034  0.64664473    -0.52300
C577        C  0.87389000  0.44736623  0.71664721     0.69700
O578        O  0.88149891  0.47191100  0.70573487    -0.47100
C579        C  0.79572528  0.49094528  0.71254061     0.74400
O580        O  0.86708403  0.51374675  0.65999102    -0.59000
O581        O  0.79336053  0.46989114  0.69444020    -0.49100
O582        O  0.82213458  0.50876255  0.64614184    -0.55400
C583        C  0.84187982  0.43545162  0.63329595     0.84600
O584        O  0.84896008  0.43814579  0.70773149    -0.57300
O585        O  0.82041602  0.50424746  0.71204826    -0.60600
In586      In  0.97323941  0.33620151  0.83110256     1.36900
C587        C  0.02380115  0.33985960  0.86164879     0.77100
O588        O  0.95167077  0.35996800  0.86882528    -0.61400
O589        O  0.93977586  0.31542618  0.86188149    -0.52300
C590        C  0.94411088  0.37198537  0.79402080     0.69700
O591        O  0.96852758  0.37946737  0.80589718    -0.47100
C592        C  0.98694880  0.29204509  0.79437320     0.74400
O593        O  0.01570604  0.35992355  0.84394598    -0.59000
O594        O  0.96575846  0.29069014  0.81260870    -0.49100
O595        O  0.00616597  0.31824270  0.86295805    -0.55400
C596        C  0.93647211  0.33829909  0.87748612     0.84600
O597        O  0.93561985  0.34653612  0.80102657    -0.57300
O598        O  0.00145989  0.31588300  0.79535838    -0.60600
In599      In  0.02615991  0.16679269  0.66144508     1.36900
C600        C  0.97587021  0.13628912  0.65637040     0.77100
O601        O  0.04929827  0.12831010  0.64034654    -0.61400
O602        O  0.05588874  0.13535852  0.68597843    -0.52300
C603        C  0.05345716  0.20201355  0.62289465     0.69700
O604        O  0.02644266  0.19479373  0.61964960    -0.47100
C605        C  0.01551727  0.20482041  0.70524389     0.74400
O606        O  0.98742662  0.14945979  0.63463035    -0.59000
O607        O  0.03838649  0.18869271  0.70451650    -0.49100
O608        O  0.98969970  0.13971759  0.68038578    -0.55400
C609        C  0.06168176  0.11961903  0.66378441     0.84600
O610        O  0.06536707  0.19190438  0.64589670    -0.57300
O611        O  0.99813452  0.20144978  0.68355931    -0.60600
In612      In  0.15836466  0.32557007  0.53251929     1.36900
C613        C  0.15905028  0.35794214  0.48368122     0.77100
O614        O  0.13237057  0.36027916  0.55667171    -0.61400
O615        O  0.17747968  0.35389906  0.56859975    -0.52300
C616        C  0.12125174  0.28557359  0.55444885     0.69700
O617        O  0.11379211  0.30158132  0.53280535    -0.47100
C618        C  0.20300149  0.28937704  0.51937400     0.74400
O619        O  0.13816236  0.34009196  0.48930722    -0.59000
O620        O  0.20323628  0.30535425  0.54223417    -0.49100
O621        O  0.17911933  0.35897229  0.50320817    -0.55400
C622        C  0.15366423  0.36804021  0.57309743     0.84600
O623        O  0.14709286  0.29048044  0.56415069    -0.57300
O624        O  0.18019065  0.29230305  0.50330140    -0.60600
C625        C  0.05509872  0.24136858  0.58398627    -0.09700
C626        C  0.07017905  0.22101552  0.60210200     0.06500
C627        C  0.10160451  0.22017452  0.60122683    -0.03400
C628        C  0.11717227  0.24087190  0.58470422    -0.07900
C629        C  0.10239993  0.26250122  0.56811281     0.05600
C630        C  0.07092579  0.26197368  0.56686407    -0.02900
Br631      Br  0.04831253  0.28943699  0.54366847    -0.02600
H632        H  0.03097130  0.24194854  0.58391505     0.09600
H633        H  0.14130690  0.24010629  0.58509622     0.07600
Br634      Br  0.12521308  0.19091514  0.62119114    -0.03000
C635        C  0.02383847  0.26459223  0.76377723    -0.09700
C636        C  0.99421578  0.26802889  0.77323872     0.06500
C637        C  0.97212285  0.24929058  0.76122706    -0.03400
C638        C  0.97966004  0.22886217  0.73927018    -0.07900
C639        C  0.00914542  0.22578439  0.72951844     0.05600
C640        C  0.03151233  0.24341134  0.74253655    -0.02900
Br641      Br  0.07255080  0.24089052  0.73093032    -0.02600
H642        H  0.04116382  0.27856371  0.77288234     0.09600
H643        H  0.96229172  0.21524115  0.72971076     0.07600
Br644      Br  0.93095905  0.25139725  0.77245920    -0.03000
C645        C  0.88522006  0.39944583  0.73989353    -0.09700
C646        C  0.89248205  0.42940009  0.73707243     0.06500
C647        C  0.91685255  0.44051882  0.75345470    -0.03400
C648        C  0.93376135  0.42142393  0.77135199    -0.07900
C649        C  0.92643549  0.39133574  0.77399163     0.05600
C650        C  0.90146681  0.38058393  0.75812193    -0.02900
Br651      Br  0.88743208  0.34052194  0.75974686    -0.02600
H652        H  0.86656550  0.39036205  0.72768153     0.09600
H653        H  0.95230772  0.43034973  0.78382224     0.07600
Br654      Br  0.92691958  0.48162707  0.75409297    -0.03000
C655        C  0.26287498  0.23021003  0.52325556    -0.09700
C656        C  0.27101891  0.22788313  0.49342152     0.06500
C657        C  0.25723674  0.24656633  0.47254536    -0.03400
C658        C  0.23540186  0.26654176  0.48166349    -0.07900
C659        C  0.22732837  0.26894663  0.51145782     0.05600
C660        C  0.24156695  0.25079703  0.53246327    -0.02900
Br661      Br  0.23166956  0.25184101  0.57363898    -0.02600
H662        H  0.27320817  0.21598816  0.53954098     0.09600
H663        H  0.22456219  0.28029464  0.46529082     0.07600
Br664      Br  0.26565212  0.24473934  0.43102387    -0.03000
C665        C  0.25038965  0.12548486  0.40553593    -0.09700
C666        C  0.27163236  0.11080311  0.42294861     0.06500
C667        C  0.27214471  0.07967673  0.42267681    -0.03400
C668        C  0.25081551  0.06409343  0.40616930    -0.07900
C669        C  0.22972931  0.07893106  0.38861726     0.05600
C670        C  0.23006273  0.11004865  0.38806500    -0.02900
Br671      Br  0.20362080  0.13332328  0.36410899    -0.02600
H672        H  0.24977624  0.14935701  0.40509932     0.09600
H673        H  0.25150370  0.04022111  0.40611013     0.07600
Br674      Br  0.30290229  0.05722040  0.44175456    -0.03000
C675        C  0.26249036  0.00660057  0.28143867    -0.09700
C676        C  0.23288940  0.01034006  0.27211989     0.06500
C677        C  0.22590364  0.00649833  0.24198043    -0.03400
C678        C  0.24832490  0.99847227  0.22199071    -0.07900
C679        C  0.27802274  0.99511084  0.23130103     0.05600
C680        C  0.28502833  0.99950460  0.26139668    -0.02900
Br681      Br  0.32464063  0.99492632  0.27694977    -0.02600
H682        H  0.26822925  0.00951305  0.30451037     0.09600
H683        H  0.24259547  0.99529563  0.19896182     0.07600
Br684      Br  0.18606720  0.01067802  0.22707660    -0.03000
C685        C  0.38678984  0.89680150  0.23382554    -0.09700
C686        C  0.39684844  0.92544993  0.22777479     0.06500
C687        C  0.42322405  0.93538332  0.24173052    -0.03400
C688        C  0.43773098  0.91727161  0.26248327    -0.07900
C689        C  0.42707068  0.88881510  0.26903194     0.05600
C690        C  0.40175127  0.87836658  0.25350621    -0.02900
Br691      Br  0.38644292  0.83883541  0.25641795    -0.02600
H692        H  0.36716468  0.88829037  0.22275507     0.09600
H693        H  0.45749092  0.92551660  0.27350217     0.07600
Br694      Br  0.44066945  0.97316377  0.23364261    -0.03000
C695        C  0.49582767  0.74323843  0.27690386    -0.09700
C696        C  0.49402800  0.77318455  0.26931436     0.06500
C697        C  0.50037636  0.78175454  0.24004374    -0.03400
C698        C  0.50956085  0.76070427  0.21945365    -0.07900
C699        C  0.51245006  0.73092472  0.22728341     0.05600
C700        C  0.50482695  0.72211413  0.25618466    -0.02900
Br701      Br  0.50382847  0.68148219  0.26796407    -0.02600
H702        H  0.49024026  0.73621828  0.29907433     0.09600
H703        H  0.51442374  0.76768719  0.19709761     0.07600
Br704      Br  0.49473059  0.82137461  0.22612201    -0.03000
C705        C  0.58321608  0.77232398  0.07689809    -0.09700
C706        C  0.61307194  0.76634455  0.07003374     0.06500
C707        C  0.62615420  0.73995843  0.08027068    -0.03400
C708        C  0.60954646  0.72050392  0.09762097    -0.07900
C709        C  0.57997005  0.72689296  0.10519575     0.05600
C710        C  0.56679570  0.75308060  0.09476614    -0.02900
Br711      Br  0.52800526  0.76540813  0.10747411    -0.02600
H712        H  0.57315251  0.79281645  0.06972349     0.09600
H713        H  0.61988525  0.70039723  0.10550395     0.07600
Br714      Br  0.66636816  0.72900987  0.07084718    -0.03000
C715        C  0.73503371  0.53024056  0.75552563    -0.09700
C716        C  0.73168811  0.51127165  0.77991684     0.06500
C717        C  0.74875968  0.48500200  0.78081103    -0.03400
C718        C  0.76863921  0.47859135  0.75799559    -0.07900
C719        C  0.77247371  0.49792182  0.73429437     0.05600
C720        C  0.75537754  0.52386585  0.73294510    -0.02900
Br721      Br  0.75866155  0.55082690  0.70050519    -0.02600
H722        H  0.72208680  0.55034293  0.75414553     0.09600
H723        H  0.78181827  0.45859985  0.75912494     0.07600
Br724      Br  0.74661457  0.45653556  0.81215417    -0.03000
C725        C  0.77906201  0.75181822  0.99956133    -0.09700
C726        C  0.76951554  0.72236034  0.99979982     0.06500
C727        C  0.73894233  0.71595868  0.00246728    -0.03400
C728        C  0.71858350  0.73894319  0.00525466    -0.07900
C729        C  0.72818948  0.76833476  0.00638029     0.05600
C730        C  0.75870383  0.77482141  0.00314593    -0.02900
Br731      Br  0.77365551  0.81445703  0.00207912    -0.02600
H732        H  0.80249697  0.75693934  0.99695305     0.09600
H733        H  0.69512423  0.73372739  0.00738833     0.07600
Br734      Br  0.72341970  0.67648633  0.00137517    -0.03000
C735        C  0.75599531  0.57855954  0.95268874    -0.09700
C736        C  0.77530906  0.59912764  0.93964892     0.06500
C737        C  0.77577317  0.60168883  0.90863519    -0.03400
C738        C  0.75509142  0.58637257  0.89160966    -0.07900
C739        C  0.73417487  0.56739299  0.90454088     0.05600
C740        C  0.73572327  0.56235523  0.93535434    -0.02900
Br741      Br  0.71052767  0.53458538  0.95523446    -0.02600
H742        H  0.75602478  0.57573550  0.97643482     0.09600
H743        H  0.75542212  0.58944726  0.86788976     0.07600
Br744      Br  0.80500796  0.62468550  0.88780892    -0.03000
C745        C  0.13899246  0.40048167  0.41369452    -0.09700
C746        C  0.16573290  0.41567501  0.40830392     0.06500
C747        C  0.19043607  0.41036189  0.42688672    -0.03400
C748        C  0.18755944  0.39122506  0.45085627    -0.07900
C749        C  0.16063681  0.37650242  0.45674242     0.05600
C750        C  0.13632950  0.38075141  0.43731217    -0.02900
Br751      Br  0.09874150  0.36097798  0.44155642    -0.02600
H752        H  0.11994534  0.40389144  0.39935378     0.09600
H753        H  0.20666857  0.38801613  0.46515387     0.07600
Br754      Br  0.22849016  0.42916303  0.42194745    -0.03000
C755        C  0.07533044  0.43543069  0.23873150    -0.09700
C756        C  0.07553225  0.40445384  0.23935589     0.06500
C757        C  0.09171581  0.38994666  0.26180216    -0.03400
C758        C  0.10866267  0.40621405  0.28176063    -0.07900
C759        C  0.10976238  0.43706329  0.28043438     0.05600
C760        C  0.09231405  0.45183496  0.25905958    -0.02900
Br761      Br  0.09243874  0.49393638  0.25509674    -0.02600
H762        H  0.06288041  0.44687096  0.22172313     0.09600
H763        H  0.12121753  0.39449822  0.29852003     0.07600
Br764      Br  0.09104632  0.34791785  0.26734460    -0.03000
C765        C  0.08395716  0.09316799  0.30811877    -0.09700
C766        C  0.09835197  0.08779205  0.33512137     0.06500
C767        C  0.08735826  0.10169470  0.36083408    -0.03400
C768        C  0.06228289  0.11996768  0.35910564    -0.07900
C769        C  0.04754538  0.12495163  0.33216858     0.05600
C770        C  0.05887760  0.11139871  0.30634821    -0.02900
Br771      Br  0.04168474  0.11630043  0.26771764    -0.02600
H772        H  0.09204976  0.08280159  0.28814100     0.09600
H773        H  0.05419944  0.13024679  0.37912847     0.07600
Br774      Br  0.10578486  0.09775046  0.39896367    -0.03000
C775        C  0.99682914  0.26653650  0.28155647    -0.09700
C776        C  0.99286733  0.23803099  0.27022744     0.06500
C777        C  0.99828560  0.23286884  0.24001006    -0.03400
C778        C  0.00766912  0.25617498  0.22188897    -0.07900
C779        C  0.01124106  0.28480820  0.23327507     0.05600
C780        C  0.00568135  0.28982445  0.26349056    -0.02900
Br781      Br  0.01125283  0.32747112  0.28207514    -0.02600
H782        H  0.99297590  0.27079641  0.30478340     0.09600
H783        H  0.01186590  0.25197274  0.19872065     0.07600
Br784      Br  0.99491585  0.19438909  0.22270944    -0.03000
C785        C  0.82139822  0.38417849  0.56951660    -0.09700
C786        C  0.84967885  0.37575971  0.55919952     0.06500
C787        C  0.87511543  0.38585404  0.57446691    -0.03400
C788        C  0.87187156  0.40460203  0.59886156    -0.07900
C789        C  0.84358947  0.41373831  0.60869962     0.05600
C790        C  0.81808721  0.40277503  0.59395452    -0.02900
Br791      Br  0.77801420  0.41303758  0.60472329    -0.02600
H792        H  0.80154591  0.37654558  0.55819086     0.09600
H793        H  0.89177366  0.41257545  0.60983995     0.07600
Br794      Br  0.91489989  0.37687902  0.56191356    -0.03000
C795        C  0.93024994  0.26742772  0.43134792    -0.09700
C796        C  0.89936927  0.27153359  0.42818177     0.06500
C797        C  0.88421064  0.25594230  0.40559950    -0.03400
C798        C  0.89983325  0.23686352  0.38714455    -0.07900
C799        C  0.93060283  0.23251825  0.39028202     0.05600
C800        C  0.94597698  0.24836607  0.41252129    -0.02900
Br801      Br  0.98842671  0.24643004  0.41744791    -0.02600
H802        H  0.94233768  0.27952718  0.44816237     0.09600
H803        H  0.88754361  0.22499716  0.37029816     0.07600
Br804      Br  0.84188715  0.25814941  0.39892966    -0.03000
C805        C  0.41071079  0.61136000  0.18168586    -0.09700
C806        C  0.40884627  0.58623521  0.16367446     0.06500
C807        C  0.43167131  0.58086445  0.14285593    -0.03400
C808        C  0.45592528  0.60017174  0.14092675    -0.07900
C809        C  0.45805541  0.62471378  0.15955169     0.05600
C810        C  0.43490325  0.63064906  0.17959757    -0.02900
Br811      Br  0.43455195  0.66566495  0.20342662    -0.02600
H812        H  0.39310649  0.61622822  0.19726468     0.09600
H813        H  0.47383977  0.59528945  0.12569484     0.07600
Br814      Br  0.43249106  0.54655372  0.11799241    -0.03000
C815        C  0.24736446  0.52286189  0.28084935    -0.09700
C816        C  0.23716964  0.49371411  0.28294745     0.06500
C817        C  0.24946992  0.47198305  0.26440557    -0.03400
C818        C  0.27063171  0.48000208  0.24326474    -0.07900
C819        C  0.28048725  0.50928986  0.24082167     0.05600
C820        C  0.26917174  0.53071759  0.26033620    -0.02900
Br821      Br  0.28084397  0.57140358  0.25868321    -0.02600
H822        H  0.23811190  0.53969475  0.29511277     0.09600
H823        H  0.27922035  0.46331128  0.22843793     0.07600
Br824      Br  0.23667502  0.43158872  0.26541542    -0.03000
C825        C  0.24102489  0.61867890  0.11276189    -0.09700
C826        C  0.23580383  0.60997181  0.08340633     0.06500
C827        C  0.25104592  0.58492591  0.07259369    -0.03400
C828        C  0.27051494  0.56926263  0.09114243    -0.07900
C829        C  0.27579616  0.57812865  0.12044646     0.05600
C830        C  0.26076361  0.60338249  0.13113587    -0.02900
Br831      Br  0.26554276  0.61874112  0.17045661    -0.02600
H832        H  0.22972802  0.63780606  0.12165360     0.09600
H833        H  0.28203259  0.55023375  0.08231835     0.07600
Br834      Br  0.24771877  0.57142732  0.03257519    -0.03000
C835        C  0.37417683  0.89314915  0.05752831    -0.09700
C836        C  0.34754535  0.87948541  0.04856133     0.06500
C837        C  0.32163805  0.88412151  0.06554764    -0.03400
C838        C  0.32229163  0.90322171  0.08974802    -0.07900
C839        C  0.34855929  0.91774542  0.09833276     0.05600
C840        C  0.37498415  0.91203637  0.08216719    -0.02900
Br841      Br  0.41302075  0.92868172  0.09238434    -0.02600
H842        H  0.39437092  0.88960518  0.04496522     0.09600
H843        H  0.30191910  0.90654548  0.10207068     0.07600
Br844      Br  0.28488478  0.86362482  0.05820988    -0.03000
C845        C  0.24967995  0.77846157  0.99559588    -0.09700
C846        C  0.27876985  0.77035396  0.98788614     0.06500
C847        C  0.28622560  0.74020811  0.98658635    -0.03400
C848        C  0.26550142  0.71892566  0.99547264    -0.07900
C849        C  0.23701133  0.72711825  0.00531799     0.05600
C850        C  0.22875072  0.75715409  0.00403143    -0.02900
Br851      Br  0.18884309  0.77030886  0.01162865    -0.02600
H852        H  0.24333383  0.80150127  0.99552792     0.09600
H853        H  0.27184738  0.69589337  0.99499458     0.07600
Br854      Br  0.32370015  0.72694163  0.97100672    -0.03000
C855        C  0.55711571  0.61449296  0.86823185    -0.09700
C856        C  0.55014165  0.62850315  0.84149405     0.06500
C857        C  0.56938665  0.62471282  0.81720195    -0.03400
C858        C  0.59431560  0.60636632  0.81971726    -0.07900
C859        C  0.60084626  0.59141166  0.84614574     0.05600
C860        C  0.58197396  0.59596151  0.87076910    -0.02900
Br861      Br  0.58782451  0.57725056  0.90838568    -0.02600
H862        H  0.54254363  0.61716600  0.88707951     0.09600
H863        H  0.60856074  0.60363295  0.80064235     0.07600
Br864      Br  0.56366157  0.64483295  0.78028800    -0.03000
C865        C  0.37772394  0.75504330  0.90294945    -0.09700
C866        C  0.39371546  0.77432480  0.92135998     0.06500
C867        C  0.42506078  0.77235838  0.92205762    -0.03400
C868        C  0.43961746  0.75093545  0.90505157    -0.07900
C869        C  0.42356670  0.73151869  0.88673404     0.05600
C870        C  0.39216181  0.73393319  0.88568466    -0.02900
Br871      Br  0.36710053  0.70894616  0.86193185    -0.02600
H872        H  0.35362112  0.75621670  0.90210187     0.09600
H873        H  0.46372763  0.74994228  0.90565158     0.07600
Br874      Br  0.44932086  0.79958213  0.94387115    -0.03000
C875        C  0.73424778  0.25221384  0.50476580    -0.09700
C876        C  0.74330289  0.22333957  0.51092640     0.06500
C877        C  0.77387625  0.21685033  0.51316370    -0.03400
C878        C  0.79486864  0.23904872  0.50818016    -0.07900
C879        C  0.78592932  0.26779568  0.50066826     0.05600
C880        C  0.75516658  0.27437873  0.49937423    -0.02900
Br881      Br  0.73989671  0.31304247  0.49112015    -0.02600
H882        H  0.71071328  0.25740361  0.50340699     0.09600
H883        H  0.81833048  0.23362926  0.50972526     0.07600
Br884      Br  0.78805793  0.17847155  0.52433266    -0.03000
C885        C  0.91257577  0.08731631  0.62874882    -0.09700
C886        C  0.89737188  0.08137573  0.65520183     0.06500
C887        C  0.90834750  0.09376525  0.68173573    -0.03400
C888        C  0.93326145  0.11220101  0.68109472    -0.07900
C889        C  0.94846536  0.11813009  0.65469528     0.05600
C890        C  0.93805919  0.10511970  0.62829457    -0.02900
Br891      Br  0.95870190  0.10840088  0.59137366    -0.02600
H892        H  0.90504309  0.07747295  0.60825378     0.09600
H893        H  0.94120960  0.12148591  0.70170433     0.07600
Br894      Br  0.89233105  0.08512751  0.72010092    -0.03000
C895        C  0.74085987  0.06910770  0.60618284    -0.09700
C896        C  0.76781198  0.05874086  0.59445414     0.06500
C897        C  0.77473120  0.06498512  0.56469738    -0.03400
C898        C  0.75543233  0.08265874  0.54783093    -0.07900
C899        C  0.72953198  0.09451139  0.56041805     0.05600
C900        C  0.72185692  0.08687066  0.58951934    -0.02900
Br901      Br  0.68578387  0.10065861  0.60771468    -0.02600
H902        H  0.73498728  0.06418648  0.62884400     0.09600
H903        H  0.76161478  0.08867436  0.52552966     0.07600
Br904      Br  0.81169532  0.05313469  0.54713632    -0.03000
C905        C  0.50225260  0.74836755  0.71877724    -0.09700
C906        C  0.50777586  0.77723426  0.72842719     0.06500
C907        C  0.50508544  0.78392348  0.75865450    -0.03400
C908        C  0.49695964  0.76182987  0.77856594    -0.07900
C909        C  0.49098571  0.73289557  0.76902392     0.05600
C910        C  0.49361241  0.72629781  0.73864078    -0.02900
Br911      Br  0.48689409  0.68767280  0.72273240    -0.02600
H912        H  0.50429151  0.74303209  0.69554930     0.09600
H913        H  0.49528956  0.76740787  0.80176104     0.07600
Br914      Br  0.51399851  0.82232413  0.77432823    -0.03000
C915        C  0.63689115  0.90722286  0.91367900    -0.09700
C916        C  0.66330656  0.90937300  0.89715448     0.06500
C917        C  0.68826985  0.89241177  0.90584396    -0.03400
C918        C  0.68660050  0.87483936  0.93112416    -0.07900
C919        C  0.66045113  0.87343906  0.94798894     0.05600
C920        C  0.63530866  0.88959946  0.93890671    -0.02900
Br921      Br  0.59922065  0.89093223  0.96152025    -0.02600
H922        H  0.61748509  0.92002789  0.90751842     0.09600
H923        H  0.70605852  0.86237767  0.93786683     0.07600
Br924      Br  0.72550406  0.89209541  0.88491996    -0.03000
C925        C  0.73711968  0.01541831  0.76132079    -0.09700
C926        C  0.72958176  0.98581610  0.76608099     0.06500
C927        C  0.74276623  0.96378048  0.74848793    -0.03400
C928        C  0.76257695  0.97180292  0.72612093    -0.07900
C929        C  0.77012789  0.00146381  0.72135302     0.05600
C930        C  0.75742578  0.02340181  0.73946988    -0.02900
Br931      Br  0.76535346  0.06474850  0.73474666    -0.02600
H932        H  0.72707468  0.03253295  0.77469790     0.09600
H933        H  0.77220047  0.95471914  0.71241483     0.07600
Br934      Br  0.73341606  0.92267603  0.75263540    -0.03000
C935        C  0.58870713  0.94158268  0.75010653    -0.09700
C936        C  0.60390817  0.92630051  0.77250125     0.06500
C937        C  0.60032289  0.89552598  0.77470128    -0.03400
C938        C  0.58424559  0.88032966  0.75316751    -0.07900
C939        C  0.57032759  0.89523250  0.72974450     0.05600
C940        C  0.57163387  0.92635163  0.72897464    -0.02900
Br941      Br  0.55201686  0.94915976  0.69907678    -0.02600
H942        H  0.59087743  0.96530715  0.74846556     0.09600
H943        H  0.58243101  0.85657289  0.75491436     0.07600
Br944      Br  0.61525278  0.87319247  0.80763219    -0.03000
C945        C  0.90421917  0.63550505  0.10572164    -0.09700
C946        C  0.91984288  0.66178442  0.11140171     0.06500
C947        C  0.91568108  0.68595436  0.09229954    -0.03400
C948        C  0.89617956  0.68353892  0.06833409    -0.07900
C949        C  0.88049258  0.65729638  0.06251038     0.05600
C950        C  0.88461548  0.63305454  0.08167911    -0.02900
Br951      Br  0.86521457  0.59571104  0.07606164    -0.02600
H952        H  0.90728907  0.61666295  0.12010804     0.09600
H953        H  0.89369440  0.70237678  0.05383531     0.07600
Br954      Br  0.93762166  0.72212398  0.09609059    -0.03000
C955        C  0.06545466  0.68915462  0.11702601    -0.09700
C956        C  0.05514350  0.66223725  0.12854864     0.06500
C957        C  0.06948707  0.63597516  0.11963978    -0.03400
C958        C  0.09429535  0.63734876  0.10098473    -0.07900
C959        C  0.10492217  0.66432567  0.09000212     0.05600
C960        C  0.08957161  0.69039047  0.09754122    -0.02900
Br961      Br  0.09813367  0.72781342  0.07966070    -0.02600
H962        H  0.05417258  0.70956858  0.12264203     0.09600
H963        H  0.10521245  0.61693669  0.09471147     0.07600
Br964      Br  0.05526034  0.59741243  0.12995325    -0.03000
C965        C  0.88244383  0.44050205  0.40144120    -0.09700
C966        C  0.85810149  0.44494981  0.38251167     0.06500
C967        C  0.83441315  0.42454716  0.38269108    -0.03400
C968        C  0.83473609  0.40112264  0.40258680    -0.07900
C969        C  0.85829254  0.39738174  0.42270018     0.05600
C970        C  0.88275939  0.41707049  0.42155940    -0.02900
Br971      Br  0.91665517  0.41457671  0.44744022    -0.02600
H972        H  0.90074986  0.45608483  0.40149958     0.09600
H973        H  0.81614106  0.38588485  0.40244587     0.07600
Br974      Br  0.80124046  0.42689039  0.35588937    -0.03000
C975        C  0.90682456  0.60981725  0.24107576    -0.09700
C976        C  0.93768510  0.60584949  0.23820746     0.06500
C977        C  0.95154515  0.58314941  0.25466477    -0.03400
C978        C  0.93450178  0.56575200  0.27406866    -0.07900
C979        C  0.90368616  0.57042589  0.27735266     0.05600
C980        C  0.88984454  0.59237371  0.25996046    -0.02900
Br981      Br  0.84751738  0.59904474  0.25926835    -0.02600
H982        H  0.89552168  0.62655056  0.22818114     0.09600
H983        H  0.94550090  0.54889181  0.28704842     0.07600
Br984      Br  0.99354495  0.57546943  0.25262454    -0.03000
C985        C  0.11426107  0.94456857  0.37628329    -0.09700
C986        C  0.12709508  0.95158930  0.34892687     0.06500
C987        C  0.12358869  0.93164230  0.32528349    -0.03400
C988        C  0.10562076  0.90667682  0.32855056    -0.07900
C989        C  0.09118471  0.90038740  0.35531679     0.05600
C990        C  0.09669687  0.91914920  0.37979989    -0.02900
Br991      Br  0.08149688  0.91165265  0.41869045    -0.02600
H992        H  0.11738566  0.95924430  0.39491596     0.09600
H993        H  0.10278937  0.89217074  0.30975704     0.07600
Br994      Br  0.14396921  0.93630109  0.28831631    -0.03000
C995        C  0.02538106  0.72594025  0.26070913    -0.09700
C996        C  0.99836433  0.72805048  0.24496124     0.06500
C997        C  0.97788838  0.75036390  0.25312242    -0.03400
C998        C  0.98485118  0.76983052  0.27621972    -0.07900
C999        C  0.01208298  0.76794869  0.29132481     0.05600
C1000       C  0.03228328  0.74554353  0.28364684    -0.02900
Br1001     Br  0.06854343  0.73944663  0.30533927    -0.02600
H1002       H  0.04123671  0.70876983  0.25535445     0.09600
H1003       H  0.96903287  0.78685070  0.28217264     0.07600
Br1004     Br  0.93967772  0.75528188  0.23458100    -0.03000
C1005       C  0.18464690  0.58933523  0.42173175    -0.09700
C1006       C  0.15664675  0.60181425  0.42730751     0.06500
C1007       C  0.13124799  0.58942693  0.41358380    -0.03400
C1008       C  0.13429670  0.56465164  0.39539248    -0.07900
C1009       C  0.16223770  0.55153501  0.39063302     0.05600
C1010       C  0.18769995  0.56440650  0.40392344    -0.02900
Br1011     Br  0.22755121  0.54960904  0.39926846    -0.02600
H1012       H  0.20439639  0.59852377  0.43201855     0.09600
H1013       H  0.11453445  0.55533780  0.38526238     0.07600
Br1014     Br  0.09184850  0.60532368  0.41805043    -0.03000
C1015       C  0.05612881  0.75809086  0.43737122    -0.09700
C1016       C  0.07190760  0.77588064  0.41735963     0.06500
C1017       C  0.10323149  0.77354568  0.41620858    -0.03400
C1018       C  0.11777296  0.75190757  0.43252888    -0.07900
C1019       C  0.10201332  0.73272708  0.45105218     0.05600
C1020       C  0.07098077  0.73670233  0.45440890    -0.02900
Br1021     Br  0.04755810  0.71254479  0.48025641    -0.02600
H1022       H  0.03212125  0.75997619  0.43888776     0.09600
H1023       H  0.14176947  0.75005948  0.43062679     0.07600
Br1024     Br  0.12787775  0.79985097  0.39358211    -0.03000
C1025       C  0.11487143  0.05923122  0.68967996    -0.09700
C1026       C  0.11841624  0.04266011  0.66375641     0.06500
C1027       C  0.10238645  0.05097283  0.63829025    -0.03400
C1028       C  0.08434632  0.07615388  0.63886645    -0.07900
C1029       C  0.08118800  0.09314746  0.66469382     0.05600
C1030       C  0.09647165  0.08407970  0.69049109    -0.02900
Br1031     Br  0.09350590  0.10395526  0.72783204    -0.02600
H1032       H  0.12663221  0.05285637  0.70959915     0.09600
H1033       H  0.07228433  0.08213802  0.61901299     0.07600
Br1034     Br  0.10199527  0.02758716  0.60295561    -0.03000
C1035       C  0.44196067  0.86542749  0.60699874    -0.09700
C1036       C  0.45244702  0.83894738  0.61906892     0.06500
C1037       C  0.43655694  0.81264483  0.61332446    -0.03400
C1038       C  0.41116205  0.81334724  0.59533962    -0.07900
C1039       C  0.40092974  0.83982625  0.58274952     0.05600
C1040       C  0.41657296  0.86618043  0.58907215    -0.02900
Br1041     Br  0.40473204  0.90428371  0.57482404    -0.02600
H1042       H  0.45383055  0.88579851  0.61126930     0.09600
H1043       H  0.39935829  0.79291415  0.59119728     0.07600
Br1044     Br  0.44716765  0.77526700  0.63035892    -0.03000
C1045       C  0.39924043  0.80916175  0.41140364    -0.09700
C1046       C  0.40322234  0.83521404  0.39533815     0.06500
C1047       C  0.38702091  0.86054617  0.40363191    -0.03400
C1048       C  0.36926048  0.86003346  0.42909476    -0.07900
C1049       C  0.36705250  0.83448019  0.44655114     0.05600
C1050       C  0.38144732  0.80846178  0.43665510    -0.02900
Br1051     Br  0.37878019  0.77097271  0.45631146    -0.02600
H1052       H  0.41101692  0.78934301  0.40495711     0.09600
H1053       H  0.35772948  0.87995167  0.43561842     0.07600
Br1054     Br  0.38752490  0.89607825  0.38059194    -0.03000
C1055       C  0.27105187  0.74147795  0.52091318    -0.09700
C1056       C  0.26302899  0.77139011  0.52023878     0.06500
C1057       C  0.23267373  0.77902056  0.51750242    -0.03400
C1058       C  0.21130490  0.75697035  0.51357462    -0.07900
C1059       C  0.21949109  0.72716617  0.51251368     0.05600
C1060       C  0.24955640  0.71938389  0.51710572    -0.02900
Br1061     Br  0.26212770  0.67905970  0.52006362    -0.02600
H1062       H  0.29415937  0.73525835  0.52397714     0.09600
H1063       H  0.18816680  0.76322489  0.51079175     0.07600
Br1064     Br  0.21869018  0.81894938  0.52062271    -0.03000
C1065       C  0.26387158  0.91950357  0.57003394    -0.09700
C1066       C  0.26793576  0.88941693  0.57639808     0.06500
C1067       C  0.25143025  0.87685942  0.59983168    -0.03400
C1068       C  0.23245606  0.89439837  0.61666903    -0.07900
C1069       C  0.22887565  0.92459159  0.61097452     0.05600
C1070       C  0.24461222  0.93712237  0.58701285    -0.02900
Br1071     Br  0.24191267  0.97808996  0.57683305    -0.02600
H1072       H  0.27615690  0.92954724  0.55210794     0.09600
H1073       H  0.22024103  0.88408114  0.63449296     0.07600
Br1074     Br  0.25243814  0.83571479  0.61013736    -0.03000
C1075       C  0.32165510  0.94093324  0.88108730    -0.09700
C1076       C  0.34970242  0.95236578  0.87333093     0.06500
C1077       C  0.37553954  0.93786716  0.88361635    -0.03400
C1078       C  0.37279464  0.91353717  0.90238472    -0.07900
C1079       C  0.34472616  0.90278867  0.91097387     0.05600
C1080       C  0.31890030  0.91648285  0.89960732    -0.02900
Br1081     Br  0.27908699  0.90444087  0.90948353    -0.02600
H1082       H  0.30150006  0.95149567  0.87321381     0.09600
H1083       H  0.39290073  0.90306845  0.91049959     0.07600
Br1084     Br  0.41525501  0.95032298  0.87403943    -0.03000
C1085       C  0.25360631  0.00834761  0.77921542    -0.09700
C1086       C  0.28270250  0.01253438  0.76858599     0.06500
C1087       C  0.28831856  0.00803293  0.73831261    -0.03400
C1088       C  0.26511227  0.99966582  0.71937568    -0.07900
C1089       C  0.23614121  0.99484075  0.72999548     0.05600
C1090       C  0.23046997  0.99925906  0.76034102    -0.02900
Br1091     Br  0.19148660  0.99465053  0.77704784    -0.02600
H1092       H  0.24893980  0.01166822  0.80243906     0.09600
H1093       H  0.26987876  0.99653133  0.69614633     0.07600
Br1094     Br  0.32692909  0.01419659  0.72122407    -0.03000
C1095       C  0.40245606  0.17893535  0.54955700    -0.09700
C1096       C  0.38331633  0.15516281  0.54336878     0.06500
C1097       C  0.38337512  0.13071654  0.56282075    -0.03400
C1098       C  0.40207267  0.13084166  0.58778615    -0.07900
C1099       C  0.42081223  0.15492874  0.59389900     0.05600
C1100       C  0.42115807  0.17891470  0.57417488    -0.02900
Br1101     Br  0.44860483  0.21124830  0.57789017    -0.02600
H1102       H  0.40338979  0.19771065  0.53482504     0.09600
H1103       H  0.40190292  0.11205862  0.60254966     0.07600
Br1104     Br  0.35905849  0.09639507  0.55676245    -0.03000
C1105       C  0.56852946  0.17910839  0.60508665    -0.09700
C1106       C  0.55741067  0.15164225  0.61418053     0.06500
C1107       C  0.57281419  0.12583937  0.60594080    -0.03400
C1108       C  0.59823118  0.12798371  0.58814216    -0.07900
C1109       C  0.60906929  0.15552443  0.57876298     0.05600
C1110       C  0.59418553  0.18132925  0.58791519    -0.02900
Br1111     Br  0.60643822  0.22036728  0.57676294    -0.02600
H1112       H  0.55715464  0.19919349  0.61142083     0.09600
H1113       H  0.60948007  0.10795605  0.58143089     0.07600
Br1114     Br  0.55952886  0.08710792  0.61673575    -0.03000
C1115       C  0.43174149  0.11908706  0.75409015    -0.09700
C1116       C  0.44307488  0.10357692  0.72973725     0.06500
C1117       C  0.43950733  0.07265431  0.72875997    -0.03400
C1118       C  0.42353225  0.05825622  0.75115835    -0.07900
C1119       C  0.41072193  0.07416149  0.77453625     0.05600
C1120       C  0.41595450  0.10474707  0.77641462    -0.02900
Br1121     Br  0.40301301  0.12808903  0.80935340    -0.02600
H1122       H  0.43495125  0.14271480  0.75569191     0.09600
H1123       H  0.41974960  0.03472981  0.74942850     0.07600
Br1124     Br  0.45318737  0.04923446  0.69624386    -0.03000
C1125       C  0.92055990  0.31703942  0.10113672    -0.09700
C1126       C  0.90382362  0.34214049  0.09427103     0.06500
C1127       C  0.91189661  0.36942945  0.10715748    -0.03400
C1128       C  0.93724157  0.37129115  0.12516850    -0.07900
C1129       C  0.95503284  0.34644559  0.13054375     0.05600
C1130       C  0.94594070  0.31886401  0.11890547    -0.02900
Br1131     Br  0.96656345  0.28241044  0.12620549    -0.02600
H1132       H  0.91439275  0.29587109  0.09186397     0.09600
H1133       H  0.94346276  0.39246507  0.13438338     0.07600
Br1134     Br  0.88915626  0.40486645  0.10182358    -0.03000
C1135       C  0.89767742  0.36260844  0.94864056    -0.09700
C1136       C  0.87988307  0.33797997  0.95473231     0.06500
C1137       C  0.87984930  0.31417338  0.93470977    -0.03400
C1138       C  0.89795447  0.31507020  0.90956734    -0.07900
C1139       C  0.91663992  0.33930017  0.90382376     0.05600
C1140       C  0.91621953  0.36339027  0.92379046    -0.02900
Br1141     Br  0.94137377  0.39745837  0.91997904    -0.02600
H1142       H  0.89808280  0.38093188  0.96398971     0.09600
H1143       H  0.89752462  0.29650474  0.89452938     0.07600
Br1144     Br  0.85468334  0.28032893  0.93994921    -0.03000
C1145       C  0.62750979  0.56578975  0.13761454    -0.09700
C1146       C  0.63496384  0.55239663  0.16455587     0.06500
C1147       C  0.62347979  0.56444204  0.19101121    -0.03400
C1148       C  0.60490758  0.58914715  0.18996212    -0.07900
C1149       C  0.59667111  0.60190487  0.16297875     0.05600
C1150       C  0.60840239  0.59013235  0.13655582    -0.02900
Br1151     Br  0.60011923  0.60658383  0.09832839    -0.02600
H1152       H  0.63606153  0.55688959  0.11712220     0.09600
H1153       H  0.59617333  0.59795508  0.21042227     0.07600
Br1154     Br  0.63210355  0.54871822  0.22949332    -0.03000
C1155       C  0.75747424  0.50300059  0.28169799    -0.09700
C1156       C  0.78776812  0.50376183  0.27399111     0.06500
C1157       C  0.79590828  0.49899478  0.24431065    -0.03400
C1158       C  0.77391894  0.49375366  0.22305729    -0.07900
C1159       C  0.74369673  0.49255438  0.23076388     0.05600
C1160       C  0.73548439  0.49711676  0.26045318    -0.02900
Br1161     Br  0.69463568  0.49722729  0.27291627    -0.02600
H1162       H  0.75088588  0.50681168  0.30437645     0.09600
H1163       H  0.78053058  0.49038260  0.20031008     0.07600
Br1164     Br  0.83646246  0.50108474  0.23095308    -0.03000
C1165       C  0.75620361  0.40583852  0.06481473    -0.09700
C1166       C  0.78054313  0.39256795  0.07912061     0.06500
C1167       C  0.78555305  0.39849750  0.10932573    -0.03400
C1168       C  0.76647569  0.41742993  0.12447613    -0.07900
C1169       C  0.74178238  0.43011114  0.11041343     0.05600
C1170       C  0.73645059  0.42398055  0.08039570    -0.02900
Br1171     Br  0.70060418  0.43640419  0.06092420    -0.02600
H1172       H  0.75162682  0.40080514  0.04186792     0.09600
H1173       H  0.77055026  0.42173485  0.14767656     0.07600
Br1174     Br  0.81775833  0.38146481  0.13146269    -0.03000
C1175       C  0.63941483  0.08559623  0.90116656    -0.09700
C1176       C  0.66646455  0.09509532  0.91359147     0.06500
C1177       C  0.69249968  0.07851812  0.90816093    -0.03400
C1178       C  0.69100172  0.05331140  0.89036878    -0.07900
C1179       C  0.66393020  0.04389134  0.87775658     0.05600
C1180       C  0.63787523  0.06036160  0.88348709    -0.02900
Br1181     Br  0.59909227  0.04920819  0.86936491    -0.02600
H1182       H  0.61913026  0.09781615  0.90537550     0.09600
H1183       H  0.71122388  0.04085976  0.88658199     0.07600
Br1184     Br  0.73038474  0.08766874  0.92581183    -0.03000
C1185       C  0.72123204  0.25538629  0.00181160    -0.09700
C1186       C  0.73036178  0.22644192  0.99579909     0.06500
C1187       C  0.76069542  0.21902070  0.99979395    -0.03400
C1188       C  0.78106232  0.24055072  0.00943256    -0.07900
C1189       C  0.77191534  0.26971113  0.01478628     0.05600
C1190       C  0.74150347  0.27688970  0.01110394    -0.02900
Br1191     Br  0.72559375  0.31523340  0.01976654    -0.02600
H1192       H  0.69803076  0.26145649  0.99914661     0.09600
H1193       H  0.80427280  0.23458369  0.01221103     0.07600
Br1194     Br  0.77546750  0.17978238  0.99366378    -0.03000
C1195       C  0.61171561  0.40986998  0.81465360    -0.09700
C1196       C  0.59480079  0.39964683  0.83862027     0.06500
C1197       C  0.59494640  0.41625725  0.86516396    -0.03400
C1198       C  0.61162114  0.44229145  0.86702979    -0.07900
C1199       C  0.62758548  0.45285300  0.84271294     0.05600
C1200       C  0.62776099  0.43624475  0.81636897    -0.02900
Br1201     Br  0.65004305  0.44794843  0.78211242    -0.02600
H1202       H  0.61216013  0.39752267  0.79418798     0.09600
H1203       H  0.61116570  0.45498186  0.88729531     0.07600
Br1204     Br  0.57175041  0.40622278  0.89933666    -0.03000
C1205       C  0.49171119  0.26053953  0.75572871    -0.09700
C1206       C  0.52160446  0.26914227  0.75879077     0.06500
C1207       C  0.54323833  0.25594145  0.74044580    -0.03400
C1208       C  0.53471662  0.23378479  0.72043821    -0.07900
C1209       C  0.50477778  0.22495146  0.71782707     0.05600
C1210       C  0.48316433  0.23887549  0.73551088    -0.02900
Br1211     Br  0.44195054  0.22748383  0.73522479    -0.02600
H1212       H  0.47479719  0.27037209  0.76963374     0.09600
H1213       H  0.55158314  0.22326111  0.70699895     0.07600
Br1214     Br  0.58480643  0.26572691  0.74295657    -0.03000
C1215       C  0.57016988  0.25523663  0.90806073    -0.09700
C1216       C  0.58338793  0.26484754  0.88158774     0.06500
C1217       C  0.61154448  0.25316449  0.87382383    -0.03400
C1218       C  0.62594773  0.23340014  0.89264112    -0.07900
C1219       C  0.61312961  0.22409690  0.91931561     0.05600
C1220       C  0.58455397  0.23494152  0.92675733    -0.02900
Br1221     Br  0.56361649  0.22302683  0.96168146    -0.02600
H1222       H  0.54846547  0.26353785  0.91432911     0.09600
H1223       H  0.64759870  0.22516721  0.88610008     0.07600
Br1224     Br  0.63221525  0.26227925  0.83779123    -0.03000
C1225       C  0.59876409  0.14133538  0.40508149    -0.09700
C1226       C  0.59008238  0.16911461  0.39442830     0.06500
C1227       C  0.60130449  0.19460584  0.40850407    -0.03400
C1228       C  0.62095428  0.19179796  0.43244817    -0.07900
C1229       C  0.62956055  0.16394822  0.44313313     0.05600
C1230       C  0.61802239  0.13853234  0.42923930    -0.02900
Br1231     Br  0.62513242  0.09937958  0.44369684    -0.02600
H1232       H  0.59007461  0.12150739  0.39486348     0.09600
H1233       H  0.62906898  0.21158656  0.44319137     0.07600
Br1234     Br  0.58878984  0.23373474  0.39801385    -0.03000
C1235       C  0.41629323  0.19555981  0.40514902    -0.09700
C1236       C  0.39819758  0.17038403  0.40503183     0.06500
C1237       C  0.40469419  0.14743703  0.38507803    -0.03400
C1238       C  0.43062174  0.14866009  0.36798313    -0.07900
C1239       C  0.44989549  0.17306817  0.36939643     0.05600
C1240       C  0.44168774  0.19733366  0.38738555    -0.02900
Br1241     Br  0.46362205  0.23371335  0.38935642    -0.02600
H1242       H  0.41108230  0.21377126  0.41972866     0.09600
H1243       H  0.43564060  0.13038726  0.35343218     0.07600
Br1244     Br  0.37787677  0.11507382  0.37855481    -0.03000
C1245       C  0.62993360  0.10918812  0.05802673    -0.09700
C1246       C  0.65756736  0.11936621  0.04761491     0.06500
C1247       C  0.68366542  0.11148707  0.06326757    -0.03400
C1248       C  0.68178827  0.09374784  0.08835177    -0.07900
C1249       C  0.65438346  0.08294388  0.09850842     0.05600
C1250       C  0.62812503  0.09087056  0.08301311    -0.02900
Br1251     Br  0.58915967  0.07782973  0.09466053    -0.02600
H1252       H  0.60969493  0.11489806  0.04626833     0.09600
H1253       H  0.70220799  0.08802957  0.09979510     0.07600
Br1254     Br  0.72288584  0.12463530  0.05242194    -0.03000
C1255       C  0.68650858  0.91406768  0.09175256    -0.09700
C1256       C  0.66002105  0.89898021  0.08529360     0.06500
C1257       C  0.63309873  0.90928383  0.09772688    -0.03400
C1258       C  0.63321454  0.93423072  0.11601533    -0.07900
C1259       C  0.65964781  0.94977314  0.12195206     0.05600
C1260       C  0.68660939  0.93929403  0.10950827    -0.02900
Br1261     Br  0.72471857  0.95783686  0.11539256    -0.02600
H1262       H  0.70734846  0.90658813  0.08233267     0.09600
H1263       H  0.61232689  0.94179767  0.12523903     0.07600
Br1264     Br  0.59543660  0.89014806  0.09129741    -0.03000
C1265       C  0.61902798  0.09746726  0.24316720    -0.09700
C1266       C  0.60453816  0.07322128  0.23028317     0.06500
C1267       C  0.57491261  0.06705336  0.23890119    -0.03400
C1268       C  0.56026613  0.08589971  0.25892405    -0.07900
C1269       C  0.57468006  0.11082870  0.27088123     0.05600
C1270       C  0.60479441  0.11589454  0.26327210    -0.02900
Br1271     Br  0.62894009  0.14692707  0.27970814    -0.02600
H1272       H  0.64200747  0.10225625  0.23768136     0.09600
H1273       H  0.53731981  0.08133545  0.26469240     0.07600
Br1274     Br  0.55290399  0.03415144  0.22356101    -0.03000
C1275       C  0.91145998  0.90618348  0.37178023    -0.09700
C1276       C  0.90247340  0.91542013  0.34347404     0.06500
C1277       C  0.91951649  0.90648501  0.31889380    -0.03400
C1278       C  0.94460950  0.88866894  0.32302217    -0.07900
C1279       C  0.95373391  0.87955704  0.35131662     0.05600
C1280       C  0.93678583  0.88859946  0.37593844    -0.02900
Br1281     Br  0.94760678  0.87945033  0.41594291    -0.02600
H1282       H  0.89890426  0.91301624  0.39099787     0.09600
H1283       H  0.95736161  0.88224055  0.30379426     0.07600
Br1284     Br  0.91141035  0.91924827  0.27924385    -0.03000
C1285       C  0.87696575  0.06822377  0.31176809    -0.09700
C1286       C  0.87745352  0.05095129  0.33748913     0.06500
C1287       C  0.89555559  0.05981753  0.36129461    -0.03400
C1288       C  0.91249635  0.08562104  0.35911655    -0.07900
C1289       C  0.91216135  0.10306029  0.33337715     0.05600
C1290       C  0.89392405  0.09406361  0.30948603    -0.02900
Br1291     Br  0.89132659  0.11513515  0.27279747    -0.02600
H1292       H  0.86331059  0.06149951  0.29318287     0.09600
H1293       H  0.92655390  0.09169223  0.37761607     0.07600
Br1294     Br  0.90029420  0.03628546  0.39621807    -0.03000
C1295       C  0.77626678  0.00147726  0.24592795    -0.09700
C1296       C  0.76749089  0.99152942  0.27384888     0.06500
C1297       C  0.73693278  0.98890646  0.28028194    -0.03400
C1298       C  0.71573255  0.99648077  0.25891286    -0.07900
C1299       C  0.72433946  0.00706635  0.23102343     0.05600
C1300       C  0.75508479  0.00951248  0.22463225    -0.02900
Br1301     Br  0.76990824  0.02243579  0.18710762    -0.02600
H1302       H  0.79975911  0.00345677  0.24081597     0.09600
H1303       H  0.69232514  0.99415623  0.26422823     0.07600
Br1304     Br  0.72299027  0.97344899  0.31725916    -0.03000
C1305       C  0.57908636  0.81396893  0.41856852    -0.09700
C1306       C  0.59685587  0.83935519  0.41894811     0.06500
C1307       C  0.58772509  0.86413968  0.40245446    -0.03400
C1308       C  0.56146328  0.86298151  0.38572411    -0.07900
C1309       C  0.54360483  0.83751631  0.38510418     0.05600
C1310       C  0.55258634  0.81285186  0.40223017    -0.02900
Br1311     Br  0.53030032  0.77674274  0.40489887    -0.02600
H1312       H  0.58566791  0.79491043  0.43144596     0.09600
H1313       H  0.55519213  0.88211554  0.37283329     0.07600
Br1314     Br  0.61109274  0.89954007  0.40024176    -0.03000
C1315       C  0.62939621  0.82067265  0.56806545    -0.09700
C1316       C  0.63071875  0.84610130  0.55051709     0.06500
C1317       C  0.61439152  0.87118331  0.55912044    -0.03400
C1318       C  0.59565600  0.86968547  0.58376817    -0.07900
C1319       C  0.59329379  0.84374101  0.60068970     0.05600
C1320       C  0.61145936  0.81940965  0.59319504    -0.02900
Br1321     Br  0.61343255  0.78367463  0.61587328    -0.02600
H1322       H  0.64233900  0.80143344  0.56204962     0.09600
H1323       H  0.58241469  0.88883987  0.58934251     0.07600
Br1324     Br  0.61506028  0.90738015  0.53715662    -0.03000
C1325       C  0.74352101  0.91680291  0.43462762    -0.09700
C1326       C  0.72698456  0.89465669  0.42031164     0.06500
C1327       C  0.73061855  0.89082780  0.38956080    -0.08200
C1328       C  0.75129846  0.90801268  0.37430790    -0.07900
C1329       C  0.76870389  0.92935237  0.38878500     0.05600
C1330       C  0.76419474  0.93410827  0.41925118    -0.02900
Br1331     Br  0.78643836  0.96251538  0.44168711    -0.02600
H1332       H  0.74099571  0.92018798  0.45816193     0.09600
H1333       H  0.75383760  0.90449689  0.35078701     0.07600
Br1334     Br  0.70796595  0.86314570  0.36645949    -0.03000
C1335       C  0.36663461  0.09900687  0.10781051    -0.09700
C1336       C  0.34099597  0.10467732  0.09087701     0.06500
C1337       C  0.31627555  0.08570792  0.09353198    -0.03400
C1338       C  0.31813417  0.06099603  0.11171288    -0.07900
C1339       C  0.34421575  0.05438578  0.12767407     0.05600
C1340       C  0.36839959  0.07431461  0.12632309    -0.02900
Br1341     Br  0.40467411  0.06919146  0.14826630    -0.02600
H1342       H  0.38560494  0.11372276  0.10638926     0.09600
H1343       H  0.29908410  0.04635471  0.11264208     0.07600
Br1344     Br  0.28008860  0.09046606  0.07124073    -0.03000
C1345       C  0.37423230  0.09435325  0.91661754    -0.09700
C1346       C  0.34730915  0.08473888  0.90391672     0.06500
C1347       C  0.32026601  0.09301872  0.91746442    -0.03400
C1348       C  0.32064423  0.11058035  0.94287698    -0.07900
C1349       C  0.34751386  0.12071332  0.95531224     0.05600
C1350       C  0.37459777  0.11238735  0.94178892    -0.02900
Br1351     Br  0.41293078  0.12434773  0.95644840    -0.02600
H1352       H  0.39522946  0.08818405  0.90662316     0.09600
H1353       H  0.29957696  0.11652335  0.95286471     0.07600
Br1354     Br  0.28193994  0.08034370  0.90333762    -0.03000
C1355       C  0.40024934  0.44419123  0.18907920    -0.09700
C1356       C  0.38207261  0.45235157  0.16507656     0.06500
C1357       C  0.38222766  0.43446432  0.13950567    -0.03400
C1358       C  0.40207457  0.41076856  0.13752487    -0.07900
C1359       C  0.42086446  0.40334292  0.16113827     0.05600
C1360       C  0.41914697  0.41976540  0.18753895    -0.02900
Br1361     Br  0.44300811  0.41123583  0.22180492    -0.02600
H1362       H  0.40013170  0.45711535  0.20919108     0.09600
H1363       H  0.40251257  0.39774288  0.11747424     0.07600
Br1364     Br  0.35572122  0.44019740  0.10670551    -0.03000
C1365       C  0.57028035  0.39273357  0.17736713    -0.09700
C1366       C  0.55909511  0.38514600  0.14935165     0.06500
C1367       C  0.57399165  0.39575491  0.12408081    -0.03400
C1368       C  0.59976285  0.41302971  0.12737682    -0.07900
C1369       C  0.61092743  0.42031937  0.15552716     0.05600
C1370       C  0.59554154  0.41030483  0.18068306    -0.02900
Br1371     Br  0.60595225  0.42166523  0.22029909    -0.02600
H1372       H  0.55897411  0.38533115  0.19712996     0.09600
H1373       H  0.61093995  0.42107353  0.10779431     0.07600
Br1374     Br  0.55933617  0.38937494  0.08477132    -0.03000
C1375       C  0.50613489  0.28505066  0.24498899    -0.09700
C1376       C  0.50547387  0.27582994  0.21541229     0.06500
C1377       C  0.51028053  0.24586794  0.20873028    -0.03400
C1378       C  0.51518646  0.22575529  0.23157904    -0.07900
C1379       C  0.51587872  0.23494377  0.26116453     0.05600
C1380       C  0.51149312  0.26499949  0.26781867    -0.02900
Br1381     Br  0.51037624  0.27977293  0.30752172    -0.02600
H1382       H  0.50220062  0.30798491  0.25041431     0.09600
H1383       H  0.51845609  0.20271573  0.22616906     0.07600
Br1384     Br  0.50829689  0.23058654  0.16921794    -0.03000
C1385       C  0.43634663  0.27330434  0.07015700    -0.09700
C1386       C  0.43453510  0.27455959  0.10116489     0.06500
C1387       C  0.41574011  0.25424279  0.11577364    -0.03400
C1388       C  0.39871320  0.23432619  0.09952891    -0.07900
C1389       C  0.39973307  0.23344997  0.06859964     0.05600
C1390       C  0.41913873  0.25304743  0.05380011    -0.02900
Br1391     Br  0.42217464  0.25436714  0.01157577    -0.02600
H1392       H  0.45066789  0.28859067  0.05852195     0.09600
H1393       H  0.38449491  0.21916781  0.11147290     0.07600
Br1394     Br  0.41254227  0.25104789  0.15800230    -0.03000
C1395       C  0.09329399  0.36562179  0.90338845    -0.09700
C1396       C  0.10265547  0.33916456  0.91667954     0.06500
C1397       C  0.08604492  0.31325077  0.91126428    -0.03400
C1398       C  0.06096866  0.31427781  0.89296332    -0.07900
C1399       C  0.05149720  0.34067982  0.87969476     0.05600
C1400       C  0.06803929  0.36664811  0.88510785    -0.02900
Br1401     Br  0.05682978  0.40451471  0.86978706    -0.02600
H1402       H  0.10553829  0.38580645  0.90745886     0.09600
H1403       H  0.04855114  0.29410741  0.88937965     0.07600
Br1404     Br  0.09476853  0.27588243  0.92930512    -0.03000
C1405       C  0.10433997  0.32887923  0.09725534    -0.09700
C1406       C  0.09231694  0.35607176  0.10590289     0.06500
C1407       C  0.09910097  0.38136040  0.08886452    -0.03400
C1408       C  0.11658888  0.37862168  0.06325777    -0.07900
C1409       C  0.12745228  0.35103696  0.05407580     0.05600
C1410       C  0.12160677  0.32612534  0.07185373    -0.02900
Br1411     Br  0.13722240  0.28754782  0.06368560    -0.02600
H1412       H  0.09989173  0.30923560  0.11010756     0.09600
H1413       H  0.12120056  0.39805910  0.05015207     0.07600
Br1414     Br  0.08602821  0.42022486  0.09950927    -0.03000
C1415       C  0.23628407  0.25146829  0.98021403    -0.09700
C1416       C  0.22820346  0.27221733  0.00175924     0.06500
C1417       C  0.24084945  0.27012596  0.03029237    -0.03400
C1418       C  0.26224117  0.24846741  0.03618438    -0.07900
C1419       C  0.27153499  0.22901041  0.01400534     0.05600
C1420       C  0.25784449  0.23008077  0.98607441    -0.02900
Br1421     Br  0.26714283  0.20225564  0.95550491    -0.02600
H1422       H  0.22646244  0.25240247  0.95835704     0.09600
H1423       H  0.27234522  0.24741710  0.05792003     0.07600
Br1424     Br  0.22957469  0.29557385  0.06227648    -0.03000
C1425       C  0.45271197  0.38392386  0.85904887    -0.09700
C1426       C  0.46298535  0.37460741  0.83136175     0.06500
C1427       C  0.44747181  0.38380273  0.80579935    -0.03400
C1428       C  0.42230004  0.40183001  0.80838873    -0.07900
C1429       C  0.41218510  0.41154872  0.83605651     0.05600
C1430       C  0.42790632  0.40247496  0.86164601    -0.02900
Br1431     Br  0.41699324  0.41401615  0.90096493    -0.02600
H1432       H  0.46449027  0.37727264  0.87886765     0.09600
H1433       H  0.41067521  0.40846545  0.78848405     0.07600
Br1434     Br  0.45855518  0.37168604  0.76670268    -0.03000
C1435       C  0.39354703  0.59311632  0.81877199    -0.09700
C1436       C  0.41427744  0.59905310  0.84132611     0.06500
C1437       C  0.41596748  0.57921570  0.86551547    -0.03400
C1438       C  0.39872770  0.55341578  0.86554392    -0.07900
C1439       C  0.37922452  0.54691165  0.84221386     0.05600
C1440       C  0.37592336  0.56762092  0.81921228    -0.02900
Br1441     Br  0.34637930  0.56323054  0.78877087    -0.02600
H1442       H  0.39094904  0.60839747  0.80057913     0.09600
H1443       H  0.40108848  0.53799513  0.88366471     0.07600
Br1444     Br  0.44108496  0.58535659  0.89940952    -0.03000
C1445       C  0.24073458  0.41855743  0.93334133    -0.09700
C1446       C  0.24075933  0.38760295  0.93228744     0.06500
C1447       C  0.26273924  0.37336629  0.91505551    -0.03400
C1448       C  0.28286048  0.39007159  0.89840977    -0.07900
C1449       C  0.28210029  0.42104055  0.89849617     0.05600
C1450       C  0.26094556  0.43528851  0.91667919    -0.02900
Br1451     Br  0.25677463  0.47734826  0.91849201    -0.02600
H1452       H  0.22418336  0.42993359  0.94644648     0.09600
H1453       H  0.29918744  0.37861937  0.88508639     0.07600
Br1454     Br  0.26744007  0.33126719  0.91357154    -0.03000
C1455       C  0.87147156  0.58649084  0.59466203    -0.09700
C1456       C  0.84446437  0.60175190  0.59011935     0.06500
C1457       C  0.81878702  0.59187458  0.60518647    -0.03400
C1458       C  0.82025900  0.56681966  0.62302119    -0.07900
C1459       C  0.84694624  0.55122594  0.62702358     0.05600
C1460       C  0.87298777  0.56163331  0.61309656    -0.02900
Br1461     Br  0.91076380  0.54214193  0.61698634    -0.02600
H1462       H  0.89155036  0.59371566  0.58358317     0.09600
H1463       H  0.80012948  0.55939398  0.63390007     0.07600
Br1464     Br  0.78052932  0.61063462  0.60240797    -0.03000
C1465       C  0.82417990  0.60090626  0.44993619    -0.09700
C1466       C  0.84900691  0.61892360  0.45598016     0.06500
C1467       C  0.87449835  0.61632226  0.43788963    -0.03400
C1468       C  0.87433357  0.59649727  0.41418801    -0.07900
C1469       C  0.84932219  0.57888680  0.40811110     0.05600
C1470       C  0.82425615  0.58084494  0.42660344    -0.02900
Br1471     Br  0.79050840  0.55500142  0.42296669    -0.02600
H1472       H  0.80462016  0.60185388  0.46386513     0.09600
H1473       H  0.89387887  0.59496457  0.40027653     0.07600
Br1474     Br  0.91039746  0.63855804  0.44406403    -0.03000
C1475       C  0.78752593  0.76076140  0.50017402    -0.09700
C1476       C  0.77831331  0.73141289  0.50397199     0.06500
C1477       C  0.74798036  0.72434370  0.49958754    -0.03400
C1478       C  0.72762675  0.74652978  0.49200475    -0.07900
C1479       C  0.73671942  0.77601214  0.48908585     0.05600
C1480       C  0.76712197  0.78301507  0.49312665    -0.02900
Br1481     Br  0.78257158  0.82222402  0.48828827    -0.02600
H1482       H  0.81074864  0.76658967  0.50323999     0.09600
H1483       H  0.70442152  0.74073202  0.48877893     0.07600
Br1484     Br  0.73308593  0.68477445  0.50227103    -0.03000
C1485       C  0.89825341  0.89929526  0.63895289    -0.09700
C1486       C  0.91566376  0.89591040  0.66455121     0.06500
C1487       C  0.91496121  0.91806557  0.68628325    -0.03400
C1488       C  0.89663920  0.94261963  0.68242901    -0.07900
C1489       C  0.87883322  0.94602803  0.65702451     0.05600
C1490       C  0.87991348  0.92398794  0.63498216    -0.02900
Br1491     Br  0.85781917  0.92619023  0.59868811    -0.02600
H1492       H  0.89890740  0.88257878  0.62187651     0.09600
H1493       H  0.89665833  0.95936776  0.69947821     0.07600
Br1494     Br  0.94023868  0.91745362  0.72056794    -0.03000
C1495       C  0.06384214  0.88081219  0.69569404    -0.09700
C1496       C  0.05130258  0.87198097  0.66863489     0.06500
C1497       C  0.06525816  0.88091770  0.64223019    -0.03400
C1498       C  0.09045891  0.89914191  0.64338181    -0.07900
C1499       C  0.10278192  0.90837562  0.67046323     0.05600
C1500       C  0.08946871  0.89840129  0.69688560    -0.02900
Br1501     Br  0.10424186  0.90835409  0.73545750    -0.02600
H1502       H  0.05363374  0.87393857  0.71622430     0.09600
H1503       H  0.10036633  0.90631273  0.62281389     0.07600
Br1504     Br  0.05039058  0.87040193  0.60384730    -0.03000
C1505       C  0.90729323  0.74918674  0.62709382    -0.09700
C1506       C  0.92929110  0.76701286  0.61427638     0.06500
C1507       C  0.93459954  0.76444945  0.58360078    -0.03400
C1508       C  0.91741515  0.74486345  0.56657327    -0.07900
C1509       C  0.89513262  0.72739705  0.57955915     0.05600
C1510       C  0.89063831  0.72934744  0.61035161    -0.02900
Br1511     Br  0.86364394  0.70437181  0.63181921    -0.02600
H1512       H  0.90325761  0.75024025  0.65064436     0.09600
H1513       H  0.92127678  0.74354514  0.54300931     0.07600
Br1514     Br  0.96413491  0.78734917  0.56333615    -0.03000
C1515       C  0.12429379  0.57678327  0.59452047    -0.09700
C1516       C  0.14807025  0.57856841  0.61486130     0.06500
C1517       C  0.17028581  0.60021225  0.61025107    -0.03400
C1518       C  0.16899405  0.61837526  0.58540064    -0.07900
C1519       C  0.14570972  0.61615850  0.56486095     0.05600
C1520       C  0.12293260  0.59531474  0.56970912    -0.02900
Br1521     Br  0.09090031  0.58949271  0.54213297    -0.02600
H1522       H  0.10700618  0.56038273  0.59747174     0.09600
H1523       H  0.18649408  0.63450678  0.58209054     0.07600
Br1524     Br  0.20299539  0.60705818  0.63680405    -0.03000
C1525       C  0.12444829  0.43010952  0.62252854    -0.09700
C1526       C  0.15110274  0.44054065  0.63495096     0.06500
C1527       C  0.17791956  0.42565123  0.62852968    -0.03400
C1528       C  0.17786500  0.40174629  0.60907736    -0.07900
C1529       C  0.15151776  0.39212718  0.59531332     0.05600
C1530       C  0.12439114  0.40633035  0.60268637    -0.02900
Br1531     Br  0.08645931  0.39512666  0.58642060    -0.02600
H1532       H  0.10367050  0.44122251  0.62738406     0.09600
H1533       H  0.19884383  0.39099895  0.60426649     0.07600
Br1534     Br  0.21544146  0.43632481  0.64609052    -0.03000
C1535       C  0.24113614  0.47977506  0.78777726    -0.09700
C1536       C  0.27061237  0.48042740  0.77755127     0.06500
C1537       C  0.27597769  0.48807430  0.74786025    -0.03400
C1538       C  0.25202562  0.49541925  0.72925870    -0.07900
C1539       C  0.22247328  0.49460313  0.73949034     0.05600
C1540       C  0.21718263  0.48643869  0.76911165    -0.02900
Br1541     Br  0.17805026  0.48578175  0.78619176    -0.02600
H1542       H  0.23667912  0.47413191  0.81059399     0.09600
H1543       H  0.25652751  0.50169522  0.70662740     0.07600
Br1544     Br  0.31552128  0.49065258  0.73207469    -0.03000
C1545       C  0.11746589  0.63217586  0.94751788    -0.09700
C1546       C  0.12938035  0.65914357  0.95696851     0.06500
C1547       C  0.12213896  0.68499932  0.94103848    -0.03400
C1548       C  0.10182801  0.68366674  0.91754690    -0.07900
C1549       C  0.08865056  0.65688111  0.90902922     0.05600
C1550       C  0.09750874  0.63075620  0.92374543    -0.02900
Br1551     Br  0.08434292  0.59213446  0.91219377    -0.02600
H1552       H  0.12324956  0.61204736  0.95904828     0.09600
H1553       H  0.09613092  0.70383241  0.90604331     0.07600
Br1554     Br  0.14003396  0.72266929  0.94923297    -0.03000
C1555       C  0.92724416  0.67268087  0.88585099    -0.09700
C1556       C  0.94700789  0.64878384  0.88743519     0.06500
C1557       C  0.94054850  0.62521710  0.90666075    -0.03400
C1558       C  0.91561841  0.62679752  0.92500779    -0.07900
C1559       C  0.89668936  0.65146504  0.92457945     0.05600
C1560       C  0.90209860  0.67412359  0.90386505    -0.02900
Br1561     Br  0.87634766  0.70755930  0.89842348    -0.02600
H1562       H  0.93158442  0.69061650  0.87065522     0.09600
H1563       H  0.91165812  0.60898922  0.94044061     0.07600
Br1564     Br  0.96601590  0.59151818  0.91099072    -0.03000
C1565       C  0.99289859  0.74750422  0.78915106    -0.09700
C1566       C  0.00616135  0.72091723  0.78032724     0.06500
C1567       C  0.01245082  0.71639955  0.75026668    -0.03400
C1568       C  0.00506664  0.73801592  0.72953966    -0.07900
C1569       C  0.99115665  0.76443584  0.73802139     0.05600
C1570       C  0.98521006  0.76917575  0.76832376    -0.02900
Br1571     Br  0.96817343  0.80512454  0.78295037    -0.02600
H1572       H  0.98822087  0.75129548  0.81230051     0.09600
H1573       H  0.01022266  0.73402445  0.70653040     0.07600
Br1574     Br  0.03285280  0.68182477  0.73656135    -0.03000
C1575       C  0.09904036  0.59512005  0.78744334    -0.09700
C1576       C  0.06782789  0.59547625  0.78606392     0.06500
C1577       C  0.05331552  0.57642023  0.76591548    -0.03400
C1578       C  0.07025699  0.55872270  0.74674674    -0.07900
C1579       C  0.10157831  0.55970752  0.74716366     0.05600
C1580       C  0.11587334  0.57746390  0.76858469    -0.02900
Br1581     Br  0.15836759  0.57835229  0.77411359    -0.02600
H1582       H  0.11060895  0.60889188  0.80331872     0.09600
H1583       H  0.05888246  0.54510713  0.73061495     0.07600
Br1584     Br  0.01076132  0.57519399  0.76177880    -0.03000
loop_ 
_geom_bond_atom_site_label_1 
_geom_bond_atom_site_label_2 
_geom_bond_distance 
_geom_bond_site_symmetry_2 
_ccdc_geom_bond_type 
In1           O3   2.238       .  S
In1           O4   2.265       .  S
In1          O12   2.229       .  S
In1           O6   2.265       .  S
In1           O8   2.259   1_455  S
In1           O9   2.259       .  S
In1          O10   2.229   1_455  S
In1          O13   2.238       .  S
C2            O8   1.261       .  A
C2           O10   1.258       .  A
C2         C1556   1.475       .  S
O3           C11   1.258       .  A
O4           C11   1.263       .  A
C5           O12   1.262       .  A
C5            O6   1.263       .  A
C5         C1576   1.485       .  S
C7            O9   1.263       .  A
C7           O13   1.261       .  A
C7         C1566   1.476       .  S
C11        C1549   1.488       .  S
In14         O16   2.258       .  S
In14         O17   2.241       .  S
In14         O25   2.215       .  S
In14         O19   2.281       .  S
In14         O21   2.268       .  S
In14         O22   2.257       .  S
In14         O23   2.217       .  S
In14         O26   2.241       .  S
C15          O21   1.267       .  A
C15          O23   1.259       .  A
C15        C1526   1.481       .  S
O16          C24   1.262       .  A
O17          C24   1.262       .  A
C18          O25   1.258       .  A
C18          O19   1.267       .  A
C18        C1579   1.486       .  S
C20          O22   1.265       .  A
C20          O26   1.262       .  A
C20        C1539   1.484       .  S
C24        C1516   1.490       .  S
In27         O29   2.236       .  S
In27         O30   2.247       .  S
In27         O38   2.219       .  S
In27         O32   2.263       .  S
In27         O34   2.256   1_655  S
In27         O35   2.262       .  S
In27         O36   2.234   1_655  S
In27         O39   2.234       .  S
C28          O34   1.264       .  A
C28          O36   1.260       .  A
C28        C1496   1.484       .  S
O29          C37   1.259       .  A
O30          C37   1.264       .  A
C31          O38   1.263       .  A
C31          O32   1.265       .  A
C31        C1506   1.485       .  S
C33          O35   1.264       .  A
C33          O39   1.262       .  A
C33        C1569   1.486       .  S
C37        C1486   1.477       .  S
In40         O42   2.247       .  S
In40         O43   2.241       .  S
In40         O51   2.203       .  S
In40         O45   2.261       .  S
In40         O47   2.253       .  S
In40         O48   2.252       .  S
In40         O49   2.210       .  S
In40         O52   2.239       .  S
C41          O47   1.266       .  A
C41          O49   1.260       .  A
C41        C1466   1.483       .  S
O42          C50   1.262       .  A
O43          C50   1.264       .  A
C44          O51   1.260       .  A
C44          O45   1.268       .  A
C44        C1509   1.481       .  S
C46          O48   1.264       .  A
C46          O52   1.263       .  A
C46        C1476   1.483       .  S
C50        C1456   1.489       .  S
In53         O55   2.242       .  S
In53         O56   2.255       .  S
In53         O64   2.242       .  S
In53         O58   2.263       .  S
In53         O60   2.266       .  S
In53         O61   2.267       .  S
In53         O62   2.238       .  S
In53         O65   2.232       .  S
C54          O60   1.264       .  A
C54          O62   1.259       .  A
C54        C1439   1.483       .  S
O55          C63   1.260       .  A
O56          C63   1.265       .  A
C57          O64   1.262       .  A
C57          O58   1.264       .  A
C57        C1449   1.491       .  S
C59          O61   1.265       .  A
C59          O65   1.261       .  A
C59        C1536   1.481       .  S
C63        C1429   1.488       .  S
In66         O68   2.251       .  S
In66         O69   2.245       .  S
In66         O77   2.241       .  S
In66         O71   2.269       .  S
In66         O73   2.278   1_556  S
In66         O74   2.235       .  S
In66         O75   2.226   1_556  S
In66         O78   2.233   1_556  S
C67          O73   1.266       .  A
C67          O75   1.258       .  A
C67        C1409   1.486       .  S
O68          C76   1.261       .  A
O69          C76   1.260       .  A
C70          O77   1.258       .  A
C70          O71   1.266       .  A
C70        C1446   1.490       .  S
C72          O74   1.264       .  A
C72          O78   1.262   1_556  A
C72        C1416   1.476   1_556  S
C76        C1396   1.485       .  S
In79         O81   2.245       .  S
In79         O82   2.228       .  S
In79         O90   2.212       .  S
In79         O84   2.284       .  S
In79         O86   2.284       .  S
In79         O87   2.225       .  S
In79         O88   2.205       .  S
In79         O91   2.240       .  S
C80          O86   1.267       .  A
C80          O88   1.257       .  A
C80        C1366   1.484       .  S
O81          C89   1.264       .  A
O82          C89   1.259       .  A
C83          O90   1.258       .  A
C83          O84   1.268       .  A
C83        C1386   1.488       .  S
C85          O87   1.260       .  A
C85          O91   1.262       .  A
C85        C1376   1.472       .  S
C89        C1359   1.476       .  S
In92         O94   2.241       .  S
In92         O95   2.232       .  S
In92        O103   2.212       .  S
In92         O97   2.283       .  S
In92         O99   2.258   1_554  S
In92        O100   2.245       .  S
In92        O101   2.239   1_554  S
In92        O104   2.232       .  S
C93          O99   1.264       .  A
C93         O101   1.261       .  A
C93        C1349   1.489       .  S
O94         C102   1.262       .  A
O95         C102   1.260       .  A
C96         O103   1.258       .  A
C96          O97   1.264       .  A
C96        C1389   1.487       .  S
C98         O100   1.259       .  A
C98         O104   1.260       .  A
C98        C1419   1.468       .  S
C102       C1336   1.476       .  S
In105       O107   2.237       .  S
In105       O108   2.251       .  S
In105       O116   2.227       .  S
In105       O110   2.250       .  S
In105       O112   2.257       .  S
In105       O113   2.250       .  S
In105       O114   2.220       .  S
In105       O117   2.239       .  S
C106        O112   1.264       .  A
C106        O114   1.259       .  A
C106       C1316   1.477       .  S
O107        C115   1.260       .  A
O108        C115   1.264       .  A
C109        O116   1.261       .  A
C109        O110   1.265       .  A
C109       C1326   1.483       .  S
C111        O113   1.265       .  A
C111        O117   1.261       .  A
C111       C1479   1.482       .  S
C115       C1306   1.479       .  S
In118       O120   2.237       .  S
In118       O121   2.250       .  S
In118       O129   2.214       .  S
In118       O123   2.254       .  S
In118       O125   2.258   1_565  S
In118       O126   2.245       .  S
In118       O127   2.228   1_565  S
In118       O130   2.226       .  S
C119        O125   1.265       .  A
C119        O127   1.259       .  A
C119       C1286   1.478       .  S
O120        C128   1.261       .  A
O121        C128   1.264       .  A
C122        O129   1.263       .  A
C122        O123   1.267       .  A
C122       C1329   1.483       .  S
C124        O126   1.266       .  A
C124        O130   1.262       .  A
C124       C1296   1.471       .  S
C128       C1276   1.486       .  S
In131       O133   2.250       .  S
In131       O134   2.234       .  S
In131       O142   2.207       .  S
In131       O136   2.285       .  S
In131       O138   2.269   1_545  S
In131       O139   2.254       .  S
In131       O140   2.216   1_545  S
In131       O143   2.239       .  S
C132        O138   1.269       .  A
C132        O140   1.258       .  A
C132       C1259   1.489       .  S
O133        C141   1.263       .  A
O134        C141   1.265       .  A
C135        O142   1.261       .  A
C135        O136   1.268       .  A
C135       C1266   1.491       .  S
C137        O139   1.264       .  A
C137        O143   1.262       .  A
C137       C1299   1.484       .  S
C141       C1249   1.488       .  S
In144       O146   2.237       .  S
In144       O147   2.252       .  S
In144       O155   2.211       .  S
In144       O149   2.280       .  S
In144       O151   2.264       .  S
In144       O152   2.245       .  S
In144       O153   2.228       .  S
In144       O156   2.233       .  S
C145        O151   1.265       .  A
C145        O153   1.257       .  A
C145       C1239   1.488       .  S
O146        C154   1.261       .  A
O147        C154   1.262       .  A
C148        O155   1.259       .  A
C148        O149   1.267       .  A
C148       C1269   1.490       .  S
C150        O152   1.262       .  A
C150        O156   1.262       .  A
C150       C1379   1.474       .  S
C154       C1226   1.483       .  S
In157       O159   2.226       .  S
In157       O160   2.253       .  S
In157       O168   2.218       .  S
In157       O162   2.271       .  S
In157       O164   2.253       .  S
In157       O165   2.262       .  S
In157       O166   2.232       .  S
In157       O169   2.223       .  S
C158        O164   1.267       .  A
C158        O166   1.261       .  A
C158       C1426   1.482       .  S
O159        C167   1.259       .  A
O160        C167   1.266       .  A
C161        O168   1.259       .  A
C161        O162   1.266       .  A
C161       C1216   1.491       .  S
C163        O165   1.265       .  A
C163        O169   1.261       .  A
C163       C1206   1.482       .  S
C167       C1196   1.486       .  S
In170       O172   2.234       .  S
In170       O173   2.246       .  S
In170       O181   2.220       .  S
In170       O175   2.270       .  S
In170       O177   2.282   1_556  S
In170       O178   2.259       .  S
In170       O179   2.212   1_556  S
In170       O182   2.239       .  S
C171        O177   1.266       .  A
C171        O179   1.256       .  A
C171       C1246   1.485       .  S
O172        C180   1.262       .  A
O173        C180   1.263       .  A
C174        O181   1.262       .  A
C174        O175   1.266       .  A
C174       C1219   1.492       .  S
C176        O178   1.263       .  A
C176        O182   1.262       .  A
C176       C1186   1.485       .  S
C180       C1176   1.482       .  S
In183       O185   2.240       .  S
In183       O186   2.225       .  S
In183       O194   2.207       .  S
In183       O188   2.257       .  S
In183       O190   2.254       .  S
In183       O191   2.245       .  S
In183       O192   2.215       .  S
In183       O195   2.234       .  S
C184        O190   1.268       .  A
C184        O192   1.258       .  A
C184       C1146   1.481       .  S
O185        C193   1.261       .  A
O186        C193   1.264       .  A
C187        O194   1.260       .  A
C187        O188   1.267       .  A
C187       C1169   1.471       .  S
C189        O191   1.264       .  A
C189        O195   1.263       .  A
C189       C1159   1.477       .  S
C193       C1369   1.479       .  S
In196       O198   2.235       .  S
In196       O199   2.250       .  S
In196       O207   2.225       .  S
In196       O201   2.248       .  S
In196       O203   2.264   1_554  S
In196       O204   2.270       .  S
In196       O205   2.241   1_554  S
In196       O208   2.227       .  S
C197        O203   1.264       .  A
C197        O205   1.259       .  A
C197       C1136   1.481       .  S
O198        C206   1.259       .  A
O199        C206   1.266       .  A
C200        O207   1.262       .  A
C200        O201   1.267       .  A
C200       C1166   1.475       .  S
C202        O204   1.266       .  A
C202        O208   1.260       .  A
C202       C1189   1.486       .  S
C206       C1126   1.479       .  S
In209       O211   2.262       .  S
In209       O212   2.235       .  S
In209       O220   2.223       .  S
In209       O214   2.275       .  S
In209       O216   2.261       .  S
In209       O217   2.241       .  S
In209       O218   2.215       .  S
In209       O221   2.257       .  S
C210        O216   1.266       .  A
C210        O218   1.260       .  A
C210       C1106   1.479       .  S
O211        C219   1.261       .  A
O212        C219   1.261       .  A
C213        O220   1.259       .  A
C213        O214   1.265       .  A
C213       C1116   1.483       .  S
C215        O217   1.263       .  A
C215        O221   1.262       .  A
C215       C1209   1.481       .  S
C219       C1099   1.480       .  S
In222       O224   2.254       .  S
In222       O225   2.246       .  S
In222       O233   2.238       .  S
In222       O227   2.264       .  S
In222       O229   2.259   1_545  S
In222       O230   2.260       .  S
In222       O231   2.218   1_545  S
In222       O234   2.245       .  S
C223        O229   1.263       .  A
C223        O231   1.258       .  A
C223       C1076   1.482       .  S
O224        C232   1.262       .  A
O225        C232   1.262       .  A
C226        O233   1.261       .  A
C226        O227   1.263       .  A
C226       C1119   1.481       .  S
C228        O230   1.263       .  A
C228        O234   1.261       .  A
C228       C1086   1.482       .  S
C232       C1346   1.487       .  S
In235       O237   2.239       .  S
In235       O238   2.239       .  S
In235       O246   2.209       .  S
In235       O240   2.279       .  S
In235       O242   2.280       .  S
In235       O243   2.244       .  S
In235       O244   2.214       .  S
In235       O247   2.222       .  S
C236        O242   1.267       .  A
C236        O244   1.256       .  A
C236       C1049   1.490       .  S
O237        C245   1.261       .  A
O238        C245   1.262       .  A
C239        O246   1.258       .  A
C239        O240   1.268       .  A
C239       C1066   1.488       .  S
C241        O243   1.263       .  A
C241        O247   1.262       .  A
C241       C1056   1.475       .  S
C245       C1039   1.485       .  S
In248       O250   2.240       .  S
In248       O251   2.253       .  S
In248       O259   2.220       .  S
In248       O253   2.270       .  S
In248       O255   2.261   1_565  S
In248       O256   2.266       .  S
In248       O257   2.228   1_565  S
In248       O260   2.242       .  S
C249        O255   1.264       .  A
C249        O257   1.259       .  A
C249       C1026   1.480       .  S
O250        C258   1.261       .  A
O251        C258   1.264       .  A
C252        O259   1.263       .  A
C252        O253   1.265       .  A
C252       C1069   1.490       .  S
C254        O256   1.264       .  A
C254        O260   1.262       .  A
C254       C1089   1.485       .  S
C258       C1499   1.488       .  S
In261       O263   2.241       .  S
In261       O264   2.240       .  S
In261       O272   2.213       .  S
In261       O266   2.260       .  S
In261       O268   2.270       .  S
In261       O269   2.244       .  S
In261       O270   2.224       .  S
In261       O273   2.238       .  S
C262        O268   1.263       .  A
C262        O270   1.258       .  A
C262       C1519   1.479       .  S
O263        C271   1.259       .  A
O264        C271   1.262       .  A
C265        O272   1.261       .  A
C265        O266   1.265       .  A
C265       C1019   1.479       .  S
C267        O269   1.263       .  A
C267        O273   1.262       .  A
C267       C1059   1.475       .  S
C271       C1006   1.480       .  S
In274       O276   2.261       .  S
In274       O277   2.251       .  S
In274       O285   2.199       .  S
In274       O279   2.282       .  S
In274       O281   2.257   1_455  S
In274       O282   2.253       .  S
In274       O283   2.223   1_455  S
In274       O286   2.257       .  S
C275        O281   1.266       .  A
C275        O283   1.262       .  A
C275       C1279   1.486       .  S
O276        C284   1.260       .  A
O277        C284   1.264       .  A
C278        O285   1.257       .  A
C278        O279   1.266       .  A
C278       C1016   1.479       .  S
C280        O282   1.263       .  A
C280        O286   1.262       .  A
C280        C999   1.479       .  S
C284        C989   1.493       .  S
In287       O289   2.237       .  S
In287       O290   2.237       .  S
In287       O298   2.210       .  S
In287       O292   2.276       .  S
In287       O294   2.258       .  S
In287       O295   2.247       .  S
In287       O296   2.217       .  S
In287       O299   2.227       .  S
C288        O294   1.265       .  A
C288        O296   1.258       .  A
C288        C966   1.473       .  S
O289        C297   1.261       .  A
O290        C297   1.262       .  A
C291        O298   1.259       .  A
C291        O292   1.267       .  A
C291        C979   1.486       .  S
C293        O295   1.264       .  A
C293        O299   1.262       .  A
C293       C1156   1.477       .  S
C297       C1469   1.474       .  S
In300       O302   2.245       .  S
In300       O303   2.251       .  S
In300       O311   2.219       .  S
In300       O305   2.271       .  S
In300       O307   2.257   1_655  S
In300       O308   2.254       .  S
In300       O309   2.233   1_655  S
In300       O312   2.247   1_655  S
C301        O307   1.264       .  A
C301        O309   1.261       .  A
C301        C956   1.488       .  S
O302        C310   1.261       .  A
O303        C310   1.264       .  A
C304        O311   1.261       .  A
C304        O305   1.265       .  A
C304        C976   1.488       .  S
C306        O308   1.263       .  A
C306        O312   1.262   1_655  A
C306        C996   1.491       .  S
C310        C946   1.482       .  S
In313       O315   2.227       .  S
In313       O316   2.228       .  S
In313       O324   2.215       .  S
In313       O318   2.271       .  S
In313       O320   2.243   1_565  S
In313       O321   2.243       .  S
In313       O322   2.235       .  S
In313       O325   2.225       .  S
C314        O320   1.265       .  A
C314        O322   1.262   1_545  A
C314       C1179   1.485       .  S
O315        C323   1.263       .  A
O316        C323   1.262       .  A
C317        O324   1.258       .  A
C317        O318   1.265       .  A
C317        C936   1.477       .  S
C319        O321   1.261       .  A
C319        O325   1.260       .  A
C319        C926   1.470       .  S
C323        C916   1.481       .  S
In326       O328   2.244       .  S
In326       O329   2.239       .  S
In326       O337   2.215       .  S
In326       O331   2.270       .  S
In326       O333   2.249       .  S
In326       O334   2.240       .  S
In326       O335   2.235       .  S
In326       O338   2.228       .  S
C327        O333   1.266       .  A
C327        O335   1.258       .  A
C327       C1036   1.480       .  S
O328        C336   1.261       .  A
O329        C336   1.262       .  A
C330        O337   1.261       .  A
C330        O331   1.267       .  A
C330        C939   1.482       .  S
C332        O334   1.265       .  A
C332        O338   1.263       .  A
C332        C906   1.473       .  S
C336       C1319   1.486       .  S
In339       O341   2.241       .  S
In339       O342   2.236       .  S
In339       O350   2.224       .  S
In339       O344   2.268       .  S
In339       O346   2.261   1_545  S
In339       O347   2.226       .  S
In339       O348   2.216   1_545  S
In339       O351   2.235   1_545  S
C340        O346   1.265       .  A
C340        O348   1.259       .  A
C340       C1489   1.485       .  S
O341        C349   1.262       .  A
O342        C349   1.260       .  A
C343        O350   1.258       .  A
C343        O344   1.264       .  A
C343        C896   1.479       .  S
C345        O347   1.261       .  A
C345        O351   1.263   1_545  A
C345        C929   1.473       .  S
C349        C886   1.483       .  S
In352       O354   2.243       .  S
In352       O355   2.233       .  S
In352       O363   2.209       .  S
In352       O357   2.265       .  S
In352       O359   2.256       .  S
In352       O360   2.237       .  S
In352       O361   2.242       .  S
In352       O364   2.234       .  S
C353        O359   1.263       .  A
C353        O361   1.259       .  A
C353       C1229   1.484       .  S
O354        C362   1.262       .  A
O355        C362   1.261       .  A
C356        O363   1.260       .  A
C356        O357   1.265       .  A
C356        C899   1.471       .  S
C358        O360   1.261       .  A
C358        O364   1.261       .  A
C358        C876   1.467       .  S
C362       C1109   1.478       .  S
In365       O367   2.233       .  S
In365       O368   2.263       .  S
In365       O376   2.225       .  S
In365       O370   2.253       .  S
In365       O372   2.256       .  S
In365       O373   2.264       .  S
In365       O374   2.229       .  S
In365       O377   2.224       .  S
C366        O372   1.266       .  A
C366        O374   1.261       .  A
C366        C856   1.481       .  S
O367        C375   1.259       .  A
O368        C375   1.267       .  A
C369        O376   1.260       .  A
C369        O370   1.266       .  A
C369        C869   1.484       .  S
C371        O373   1.266       .  A
C371        O377   1.261       .  A
C371        C909   1.485       .  S
C375       C1436   1.492       .  S
In378       O380   2.231       .  S
In378       O381   2.239       .  S
In378       O389   2.219       .  S
In378       O383   2.263       .  S
In378       O385   2.279   1_556  S
In378       O386   2.252       .  S
In378       O387   2.224   1_556  S
In378       O390   2.228       .  S
C379        O385   1.266       .  A
C379        O387   1.259       .  A
C379        C836   1.487       .  S
O380        C388   1.261       .  A
O381        C388   1.262       .  A
C382        O389   1.260       .  A
C382        O383   1.267       .  A
C382        C866   1.482       .  S
C384        O386   1.264       .  A
C384        O390   1.262       .  A
C384        C846   1.476       .  S
C388       C1079   1.481       .  S
In391       O393   2.227       .  S
In391       O394   2.246       .  S
In391       O402   2.232       .  S
In391       O396   2.260       .  S
In391       O398   2.248       .  S
In391       O399   2.240       .  S
In391       O400   2.227       .  S
In391       O403   2.228       .  S
C392        O398   1.265       .  A
C392        O400   1.262       .  A
C392       C1356   1.486       .  S
O393        C401   1.260       .  A
O394        C401   1.265       .  A
C395        O402   1.259       .  A
C395        O396   1.266       .  A
C395        C829   1.490       .  S
C397        O399   1.264       .  A
C397        O403   1.261       .  A
C397        C819   1.473       .  S
C401        C806   1.478       .  S
In404       O406   2.239       .  S
In404       O407   2.254       .  S
In404       O415   2.229       .  S
In404       O409   2.270       .  S
In404       O411   2.263   1_554  S
In404       O412   2.241       .  S
In404       O413   2.215   1_554  S
In404       O416   2.246       .  S
C405        O411   1.268       .  A
C405        O413   1.258       .  A
C405       C1546   1.482       .  S
O406        C414   1.262       .  A
O407        C414   1.265       .  A
C408        O415   1.262       .  A
C408        O409   1.266       .  A
C408        C826   1.492       .  S
C410        O412   1.264       .  A
C410        O416   1.263       .  A
C410        C849   1.483       .  S
C414        C959   1.485       .  S
In417       O419   2.229       .  S
In417       O420   2.217       .  S
In417       O428   2.193       .  S
In417       O422   2.273       .  S
In417       O424   2.263       .  S
In417       O425   2.231       .  S
In417       O426   2.215       .  S
In417       O429   2.231       .  S
C418        O424   1.269       .  A
C418        O426   1.260       .  A
C418        C786   1.485       .  S
O419        C427   1.263       .  A
O420        C427   1.266       .  A
C421        O428   1.258       .  A
C421        O422   1.272       .  A
C421        C796   1.485       .  S
C423        O425   1.264       .  A
C423        O429   1.264       .  A
C423        C879   1.478       .  S
C427        C969   1.480       .  S
In430       O432   2.230       .  S
In430       O433   2.259       .  S
In430       O441   2.228       .  S
In430       O435   2.256       .  S
In430       O437   2.253   1_655  S
In430       O438   2.263       .  S
In430       O439   2.222   1_655  S
In430       O442   2.214       .  S
C431        O437   1.265       .  A
C431        O439   1.258       .  A
C431        C769   1.486       .  S
O432        C440   1.261       .  A
O433        C440   1.265       .  A
C434        O441   1.263       .  A
C434        O435   1.264       .  A
C434        C799   1.486       .  S
C436        O438   1.266       .  A
C436        O442   1.260       .  A
C436        C776   1.477       .  S
C440       C1289   1.489       .  S
In443       O445   2.238       .  S
In443       O446   2.237       .  S
In443       O454   2.214       .  S
In443       O448   2.267       .  S
In443       O450   2.256       .  S
In443       O451   2.244       .  S
In443       O452   2.223       .  S
In443       O455   2.234       .  S
C444        O450   1.265       .  A
C444        O452   1.258       .  A
C444       C1009   1.484       .  S
O445        C453   1.262       .  A
O446        C453   1.261       .  A
C447        O454   1.260       .  A
C447        O448   1.264       .  A
C447        C759   1.480       .  S
C449        O451   1.261       .  A
C449        O455   1.260       .  A
C449        C816   1.471       .  S
C453        C746   1.480       .  S
In456       O458   2.260       .  S
In456       O459   2.225       .  S
In456       O467   2.199       .  S
In456       O461   2.270       .  S
In456       O463   2.265   1_455  S
In456       O464   2.253       .  S
In456       O465   2.197       .  S
In456       O468   2.234       .  S
C457        O463   1.269       .  A
C457        O465   1.256   1_655  A
C457       C1129   1.480       .  S
O458        C466   1.264       .  A
O459        C466   1.264       .  A
C460        O467   1.260       .  A
C460        O461   1.268       .  A
C460        C756   1.478       .  S
C462        O464   1.264       .  A
C462        O468   1.261       .  A
C462        C779   1.478       .  S
C466       C1406   1.488       .  S
In469       O471   2.230       .  S
In469       O472   2.224       .  S
In469       O480   2.197       .  S
In469       O474   2.274       .  S
In469       O476   2.258   1_556  S
In469       O477   2.223       .  S
In469       O478   2.218   1_556  S
In469       O481   2.225   1_556  S
C470        O476   1.265       .  A
C470        O478   1.259       .  A
C470        C949   1.486       .  S
O471        C479   1.262       .  A
O472        C479   1.260       .  A
C473        O480   1.258       .  A
C473        O474   1.267       .  A
C473        C736   1.477       .  S
C475        O477   1.261       .  A
C475        O481   1.263   1_556  A
C475        C726   1.465       .  S
C479       C1559   1.477       .  S
In482       O484   2.248       .  S
In482       O485   2.251       .  S
In482       O493   2.218       .  S
In482       O487   2.269       .  S
In482       O489   2.260       .  S
In482       O490   2.255       .  S
In482       O491   2.220       .  S
In482       O494   2.227       .  S
C483        O489   1.264       .  A
C483        O491   1.258       .  A
C483       C1199   1.476       .  S
O484        C492   1.259       .  A
O485        C492   1.262       .  A
C486        O493   1.261       .  A
C486        O487   1.263       .  A
C486        C739   1.484       .  S
C488        O490   1.265       .  A
C488        O494   1.260       .  A
C488        C716   1.487       .  S
C492        C859   1.489       .  S
In495       O497   2.236       .  S
In495       O498   2.250       .  S
In495       O506   2.225       .  S
In495       O500   2.255       .  S
In495       O502   2.250   1_554  S
In495       O503   2.231       .  S
In495       O504   2.221   1_554  S
In495       O507   2.216       .  S
C496        O502   1.265       .  A
C496        O504   1.259       .  A
C496        C919   1.473       .  S
O497        C505   1.259       .  A
O498        C505   1.264       .  A
C499        O506   1.261       .  A
C499        O500   1.266       .  A
C499        C706   1.475       .  S
C501        O503   1.265       .  A
C501        O507   1.263       .  A
C501        C729   1.467       .  S
C505       C1256   1.483       .  S
In508       O510   2.230       .  S
In508       O511   2.249       .  S
In508       O519   2.230       .  S
In508       O513   2.248       .  S
In508       O515   2.260       .  S
In508       O516   2.249       .  S
In508       O517   2.223       .  S
In508       O520   2.233       .  S
C509        O515   1.264       .  A
C509        O517   1.257       .  A
C509        C809   1.470       .  S
O510        C518   1.259       .  A
O511        C518   1.265       .  A
C512        O519   1.261       .  A
C512        O513   1.265       .  A
C512        C709   1.473       .  S
C514        O516   1.265       .  A
C514        O520   1.262       .  A
C514        C699   1.478       .  S
C518       C1149   1.479       .  S
In521       O523   2.239       .  S
In521       O524   2.242       .  S
In521       O532   2.206       .  S
In521       O526   2.275       .  S
In521       O528   2.264       .  S
In521       O529   2.253       .  S
In521       O530   2.231       .  S
In521       O533   2.231       .  S
C522        O528   1.266       .  A
C522        O530   1.257       .  A
C522       C1309   1.490       .  S
O523        C531   1.262       .  A
O524        C531   1.264       .  A
C525        O532   1.259       .  A
C525        O526   1.268       .  A
C525        C689   1.490       .  S
C527        O529   1.264       .  A
C527        O533   1.261       .  A
C527        C696   1.478       .  S
C531       C1046   1.480       .  S
In534       O536   2.253       .  S
In534       O537   2.245       .  S
In534       O545   2.214       .  S
In534       O539   2.262       .  S
In534       O541   2.263   1_565  S
In534       O542   2.259       .  S
In534       O543   2.206   1_565  S
In534       O546   2.231       .  S
C535        O541   1.266       .  A
C535        O543   1.260       .  A
C535       C1339   1.484       .  S
O536        C544   1.261       .  A
O537        C544   1.266       .  A
C538        O545   1.262       .  A
C538        O539   1.266       .  A
C538        C686   1.488       .  S
C540        O542   1.266       .  A
C540        O546   1.261       .  A
C540        C679   1.481       .  S
C544        C839   1.493       .  S
In547       O549   2.242       .  S
In547       O550   2.248       .  S
In547       O558   2.216       .  S
In547       O552   2.264       .  S
In547       O554   2.271       .  S
In547       O555   2.237       .  S
In547       O556   2.221       .  S
In547       O559   2.247       .  S
C548        O554   1.264       .  A
C548        O556   1.260       .  A
C548       C1096   1.489       .  S
O549        C557   1.260       .  A
O550        C557   1.262       .  A
C551        O558   1.259       .  A
C551        O552   1.265       .  A
C551        C666   1.482       .  S
C553        O555   1.261       .  A
C553        O559   1.262       .  A
C553        C656   1.479       .  S
C557       C1236   1.479       .  S
In560       O562   2.238       .  S
In560       O563   2.254       .  S
In560       O571   2.225       .  S
In560       O565   2.258       .  S
In560       O567   2.268   1_545  S
In560       O568   2.258       .  S
In560       O569   2.230   1_545  S
In560       O572   2.236       .  S
C561        O567   1.263       .  A
C561        O569   1.259       .  A
C561        C986   1.484       .  S
O562        C570   1.260       .  A
O563        C570   1.264       .  A
C564        O571   1.259       .  A
C564        O565   1.264       .  A
C564        C669   1.481       .  S
C566        O568   1.263       .  A
C566        O572   1.261       .  A
C566        C676   1.480       .  S
C570        C766   1.485       .  S
In573       O575   2.244       .  S
In573       O576   2.254       .  S
In573       O584   2.217       .  S
In573       O578   2.277       .  S
In573       O580   2.270       .  S
In573       O581   2.250       .  S
In573       O582   2.218       .  S
In573       O585   2.248       .  S
C574        O580   1.265       .  A
C574        O582   1.260       .  A
C574       C1459   1.482       .  S
O575        C583   1.261       .  A
O576        C583   1.263       .  A
C577        O584   1.260       .  A
C577        O578   1.265       .  A
C577        C646   1.488       .  S
C579        O581   1.263       .  A
C579        O585   1.262       .  A
C579        C719   1.472       .  S
C583        C789   1.489       .  S
In586       O588   2.242       .  S
In586       O589   2.258       .  S
In586       O597   2.217       .  S
In586       O591   2.281       .  S
In586       O593   2.263   1_655  S
In586       O594   2.253       .  S
In586       O595   2.218   1_655  S
In586       O598   2.255   1_655  S
C587        O593   1.266       .  A
C587        O595   1.261       .  A
C587       C1399   1.486       .  S
O588        C596   1.259       .  A
O589        C596   1.264       .  A
C590        O597   1.257       .  A
C590        O591   1.266       .  A
C590        C649   1.490       .  S
C592        O594   1.263       .  A
C592        O598   1.263   1_655  A
C592        C636   1.487       .  S
C596       C1139   1.491       .  S
In599       O601   2.246       .  S
In599       O602   2.246       .  S
In599       O610   2.212       .  S
In599       O604   2.280       .  S
In599       O606   2.259   1_455  S
In599       O607   2.256       .  S
In599       O608   2.220   1_455  S
In599       O611   2.251   1_455  S
C600        O606   1.264       .  A
C600        O608   1.261       .  A
C600        C889   1.482       .  S
O601        C609   1.261       .  A
O602        C609   1.261       .  A
C603        O610   1.257       .  A
C603        O604   1.264       .  A
C603        C626   1.482       .  S
C605        O607   1.261       .  A
C605        O611   1.262   1_455  A
C605        C639   1.482       .  S
C609       C1029   1.487       .  S
In612       O614   2.246       .  S
In612       O615   2.247       .  S
In612       O623   2.202       .  S
In612       O617   2.277       .  S
In612       O619   2.254       .  S
In612       O620   2.256       .  S
In612       O621   2.221       .  S
In612       O624   2.235       .  S
C613        O619   1.265       .  A
C613        O621   1.262       .  A
C613        C749   1.485       .  S
O614        C622   1.260       .  A
O615        C622   1.264       .  A
C616        O623   1.259       .  A
C616        O617   1.265       .  A
C616        C629   1.482       .  S
C618        O620   1.264       .  A
C618        O624   1.262       .  A
C618        C659   1.477       .  S
C622       C1529   1.489       .  S
C625        C626   1.408       .  A
C625        C630   1.408       .  A
C625        H632   1.083       .  S
C626        C627   1.412       .  A
C627        C628   1.390       .  A
C627       Br634   1.923       .  S
C628        C629   1.402       .  A
C628        H633   1.084       .  S
C629        C630   1.414       .  A
C630       Br631   1.919       .  S
C635        C636   1.407   1_455  A
C635        C640   1.403       .  A
C635        H642   1.084       .  S
C636        C637   1.413       .  A
C637        C638   1.401       .  A
C637       Br644   1.920       .  S
C638        C639   1.403   1_655  A
C638        H643   1.084       .  S
C639        C640   1.411       .  A
C640       Br641   1.920       .  S
C645        C646   1.403       .  A
C645        C650   1.394       .  A
C645        H652   1.083       .  S
C646        C647   1.413       .  A
C647        C648   1.408       .  A
C647       Br654   1.919       .  S
C648        C649   1.409       .  A
C648        H653   1.083       .  S
C649        C650   1.416       .  A
C650       Br651   1.925       .  S
C655        C656   1.405       .  A
C655        C660   1.401       .  A
C655        H662   1.084       .  S
C656        C657   1.412       .  A
C657        C658   1.398       .  A
C657       Br664   1.921       .  S
C658        C659   1.403       .  A
C658        H663   1.084       .  S
C659        C660   1.410       .  A
C660       Br661   1.919       .  S
C665        C666   1.404       .  A
C665        C670   1.394       .  A
C665        H672   1.084       .  S
C666        C667   1.412       .  A
C667        C668   1.404       .  A
C667       Br674   1.920       .  S
C668        C669   1.406       .  A
C668        H673   1.083       .  S
C669        C670   1.412       .  A
C670       Br671   1.922       .  S
C675        C676   1.403       .  A
C675        C680   1.399   1_545  A
C675        H682   1.084       .  S
C676        C677   1.411       .  A
C677        C678   1.404   1_545  A
C677       Br684   1.919       .  S
C678        C679   1.405       .  A
C678        H683   1.083       .  S
C679        C680   1.412       .  A
C680       Br681   1.922       .  S
C685        C686   1.403       .  A
C685        C690   1.394       .  A
C685        H692   1.083       .  S
C686        C687   1.414       .  A
C687        C688   1.407       .  A
C687       Br694   1.920       .  S
C688        C689   1.408       .  A
C688        H693   1.083       .  S
C689        C690   1.416       .  A
C690       Br691   1.925       .  S
C695        C696   1.404       .  A
C695        C700   1.402       .  A
C695        H702   1.084       .  S
C696        C697   1.411       .  A
C697        C698   1.398       .  A
C697       Br704   1.922       .  S
C698        C699   1.403       .  A
C698        H703   1.084       .  S
C699        C700   1.412       .  A
C700       Br701   1.920       .  S
C705        C706   1.403       .  A
C705        C710   1.401       .  A
C705        H712   1.083       .  S
C706        C707   1.411       .  A
C707        C708   1.398       .  A
C707       Br714   1.921       .  S
C708        C709   1.402       .  A
C708        H713   1.084       .  S
C709        C710   1.408       .  A
C710       Br711   1.919       .  S
C715        C716   1.409       .  A
C715        C720   1.403       .  A
C715        H722   1.083       .  S
C716        C717   1.418       .  A
C717        C718   1.398       .  A
C717       Br724   1.922       .  S
C718        C719   1.397       .  A
C718        H723   1.084       .  S
C719        C720   1.407       .  A
C720       Br721   1.918       .  S
C725        C726   1.403       .  A
C725        C730   1.397   1_556  A
C725        H732   1.084       .  S
C726        C727   1.408   1_556  A
C727        C728   1.393       .  A
C727       Br734   1.922       .  S
C728        C729   1.402       .  A
C728        H733   1.084       .  S
C729        C730   1.409       .  A
C730       Br731   1.920       .  S
C735        C736   1.405       .  A
C735        C740   1.407       .  A
C735        H742   1.083       .  S
C736        C737   1.410       .  A
C737        C738   1.391       .  A
C737       Br744   1.925       .  S
C738        C739   1.403       .  A
C738        H743   1.084       .  S
C739        C740   1.416       .  A
C740       Br741   1.919       .  S
C745        C746   1.406       .  A
C745        C750   1.400       .  A
C745        H752   1.084       .  S
C746        C747   1.411       .  A
C747        C748   1.396       .  A
C747       Br754   1.922       .  S
C748        C749   1.406       .  A
C748        H753   1.083       .  S
C749        C750   1.413       .  A
C750       Br751   1.920       .  S
C755        C756   1.406       .  A
C755        C760   1.406       .  A
C755        H762   1.083       .  S
C756        C757   1.411       .  A
C757        C758   1.391       .  A
C757       Br764   1.923       .  S
C758        C759   1.402       .  A
C758        H763   1.084       .  S
C759        C760   1.413       .  A
C760       Br761   1.918       .  S
C765        C766   1.403       .  A
C765        C770   1.399       .  A
C765        H772   1.083       .  S
C766        C767   1.414       .  A
C767        C768   1.400       .  A
C767       Br774   1.921       .  S
C768        C769   1.405       .  A
C768        H773   1.083       .  S
C769        C770   1.417       .  A
C770       Br771   1.924       .  S
C775        C776   1.402       .  A
C775        C780   1.395   1_655  A
C775        H782   1.084       .  S
C776        C777   1.410       .  A
C777        C778   1.404   1_655  A
C777       Br784   1.919       .  S
C778        C779   1.406       .  A
C778        H783   1.084       .  S
C779        C780   1.410       .  A
C780       Br781   1.920       .  S
C785        C786   1.407       .  A
C785        C790   1.400       .  A
C785        H792   1.084       .  S
C786        C787   1.409       .  A
C787        C788   1.402       .  A
C787       Br794   1.919       .  S
C788        C789   1.409       .  A
C788        H793   1.083       .  S
C789        C790   1.414       .  A
C790       Br791   1.922       .  S
C795        C796   1.405       .  A
C795        C800   1.406       .  A
C795        H802   1.083       .  S
C796        C797   1.416       .  A
C797        C798   1.394       .  A
C797       Br804   1.925       .  S
C798        C799   1.402       .  A
C798        H803   1.083       .  S
C799        C800   1.415       .  A
C800       Br801   1.920       .  S
C805        C806   1.404       .  A
C805        C810   1.397       .  A
C805        H812   1.083       .  S
C806        C807   1.415       .  A
C807        C808   1.400       .  A
C807       Br814   1.921       .  S
C808        C809   1.400       .  A
C808        H813   1.084       .  S
C809        C810   1.408       .  A
C810       Br811   1.920       .  S
C815        C816   1.402       .  A
C815        C820   1.397       .  A
C815        H822   1.084       .  S
C816        C817   1.409       .  A
C817        C818   1.398       .  A
C817       Br824   1.921       .  S
C818        C819   1.405       .  A
C818        H823   1.084       .  S
C819        C820   1.410       .  A
C820       Br821   1.920       .  S
C825        C826   1.406       .  A
C825        C830   1.399       .  A
C825        H832   1.083       .  S
C826        C827   1.415       .  A
C827        C828   1.404       .  A
C827       Br834   1.919       .  S
C828        C829   1.406       .  A
C828        H833   1.083       .  S
C829        C830   1.416       .  A
C830       Br831   1.924       .  S
C835        C836   1.405       .  A
C835        C840   1.407       .  A
C835        H842   1.083       .  S
C836        C837   1.412       .  A
C837        C838   1.397       .  A
C837       Br844   1.921       .  S
C838        C839   1.404       .  A
C838        H843   1.083       .  S
C839        C840   1.419       .  A
C840       Br841   1.922       .  S
C845        C846   1.402       .  A
C845        C850   1.401   1_556  A
C845        H852   1.083       .  S
C846        C847   1.409       .  A
C847        C848   1.400       .  A
C847       Br854   1.922       .  S
C848        C849   1.405   1_556  A
C848        H853   1.083       .  S
C849        C850   1.414       .  A
C850       Br851   1.920       .  S
C855        C856   1.403       .  A
C855        C860   1.402       .  A
C855        H862   1.084       .  S
C856        C857   1.411       .  A
C857        C858   1.399       .  A
C857       Br864   1.922       .  S
C858        C859   1.406       .  A
C858        H863   1.083       .  S
C859        C860   1.417       .  A
C860       Br861   1.921       .  S
C865        C866   1.404       .  A
C865        C870   1.397       .  A
C865        H872   1.084       .  S
C866        C867   1.410       .  A
C867        C868   1.403       .  A
C867       Br874   1.918       .  S
C868        C869   1.407       .  A
C868        H873   1.083       .  S
C869        C870   1.414       .  A
C870       Br871   1.923       .  S
C875        C876   1.400       .  A
C875        C880   1.397       .  A
C875        H882   1.084       .  S
C876        C877   1.407       .  A
C877        C878   1.397       .  A
C877       Br884   1.922       .  S
C878        C879   1.406       .  A
C878        H883   1.083       .  S
C879        C880   1.414       .  A
C880       Br881   1.920       .  S
C885        C886   1.406       .  A
C885        C890   1.400       .  A
C885        H892   1.083       .  S
C886        C887   1.414       .  A
C887        C888   1.396       .  A
C887       Br894   1.923       .  S
C888        C889   1.404       .  A
C888        H893   1.084       .  S
C889        C890   1.412       .  A
C890       Br891   1.920       .  S
C895        C896   1.404       .  A
C895        C900   1.394       .  A
C895        H902   1.084       .  S
C896        C897   1.413       .  A
C897        C898   1.405       .  A
C897       Br904   1.919       .  S
C898        C899   1.403       .  A
C898        H903   1.083       .  S
C899        C900   1.407       .  A
C900       Br901   1.923       .  S
C905        C906   1.402       .  A
C905        C910   1.401       .  A
C905        H912   1.084       .  S
C906        C907   1.408       .  A
C907        C908   1.397       .  A
C907       Br914   1.923       .  S
C908        C909   1.407       .  A
C908        H913   1.083       .  S
C909        C910   1.414       .  A
C910       Br911   1.918       .  S
C915        C916   1.407       .  A
C915        C920   1.397       .  A
C915        H922   1.083       .  S
C916        C917   1.415       .  A
C917        C918   1.398       .  A
C917       Br924   1.923       .  S
C918        C919   1.403       .  A
C918        H923   1.084       .  S
C919        C920   1.407       .  A
C920       Br921   1.920       .  S
C925        C926   1.402   1_545  A
C925        C930   1.395       .  A
C925        H932   1.084       .  S
C926        C927   1.410       .  A
C927        C928   1.398       .  A
C927       Br934   1.920       .  S
C928        C929   1.404   1_565  A
C928        H933   1.084       .  S
C929        C930   1.411       .  A
C930       Br931   1.921       .  S
C935        C936   1.404       .  A
C935        C940   1.406       .  A
C935        H942   1.083       .  S
C936        C937   1.409       .  A
C937        C938   1.394       .  A
C937       Br944   1.923       .  S
C938        C939   1.404       .  A
C938        H943   1.084       .  S
C939        C940   1.413       .  A
C940       Br941   1.917       .  S
C945        C946   1.406       .  A
C945        C950   1.403       .  A
C945        H952   1.084       .  S
C946        C947   1.409       .  A
C947        C948   1.397       .  A
C947       Br954   1.921       .  S
C948        C949   1.407       .  A
C948        H953   1.084       .  S
C949        C950   1.413       .  A
C950       Br951   1.921       .  S
C955        C956   1.407       .  A
C955        C960   1.399       .  A
C955        H962   1.086       .  S
C956        C957   1.414       .  A
C957        C958   1.401       .  A
C957       Br964   1.920       .  S
C958        C959   1.405       .  A
C958        H963   1.086       .  S
C959        C960   1.411       .  A
C960       Br961   1.920       .  S
C965        C966   1.402       .  A
C965        C970   1.400       .  A
C965        H972   1.084       .  S
C966        C967   1.409       .  A
C967        C968   1.394       .  A
C967       Br974   1.922       .  S
C968        C969   1.404       .  A
C968        H973   1.083       .  S
C969        C970   1.416       .  A
C970       Br971   1.922       .  S
C975        C976   1.403       .  A
C975        C980   1.393       .  A
C975        H982   1.083       .  S
C976        C977   1.415       .  A
C977        C978   1.408       .  A
C977       Br984   1.919       .  S
C978        C979   1.408       .  A
C978        H983   1.083       .  S
C979        C980   1.413       .  A
C980       Br981   1.924       .  S
C985        C986   1.404       .  A
C985        C990   1.406       .  A
C985        H992   1.084       .  S
C986        C987   1.410       .  A
C987        C988   1.398       .  A
C987       Br994   1.922       .  S
C988        C989   1.405       .  A
C988        H993   1.083       .  S
C989        C990   1.419       .  A
C990       Br991   1.921       .  S
C995        C996   1.409   1_455  A
C995       C1000   1.401       .  A
C995       H1002   1.083       .  S
C996        C997   1.417       .  A
C997        C998   1.404       .  A
C997      Br1004   1.921       .  S
C998        C999   1.402   1_655  A
C998       H1003   1.084       .  S
C999       C1000   1.407       .  A
C1000     Br1001   1.919       .  S
C1005      C1006   1.402       .  A
C1005      C1010   1.396       .  A
C1005      H1012   1.083       .  S
C1006      C1007   1.413       .  A
C1007      C1008   1.400       .  A
C1007     Br1014   1.921       .  S
C1008      C1009   1.405       .  A
C1008      H1013   1.083       .  S
C1009      C1010   1.416       .  A
C1010     Br1011   1.923       .  S
C1015      C1016   1.406       .  A
C1015      C1020   1.407       .  A
C1015      H1022   1.083       .  S
C1016      C1017   1.411       .  A
C1017      C1018   1.391       .  A
C1017     Br1024   1.924       .  S
C1018      C1019   1.401       .  A
C1018      H1023   1.084       .  S
C1019      C1020   1.413       .  A
C1020     Br1021   1.919       .  S
C1025      C1026   1.404       .  A
C1025      C1030   1.398       .  A
C1025      H1032   1.084       .  S
C1026      C1027   1.410       .  A
C1027      C1028   1.401       .  A
C1027     Br1034   1.920       .  S
C1028      C1029   1.408       .  A
C1028      H1033   1.083       .  S
C1029      C1030   1.415       .  A
C1030     Br1031   1.922       .  S
C1035      C1036   1.401       .  A
C1035      C1040   1.398       .  A
C1035      H1042   1.084       .  S
C1036      C1037   1.414       .  A
C1037      C1038   1.400       .  A
C1037     Br1044   1.923       .  S
C1038      C1039   1.407       .  A
C1038      H1043   1.083       .  S
C1039      C1040   1.415       .  A
C1040     Br1041   1.920       .  S
C1045      C1046   1.400       .  A
C1045      C1050   1.397       .  A
C1045      H1052   1.084       .  S
C1046      C1047   1.412       .  A
C1047      C1048   1.404       .  A
C1047     Br1054   1.921       .  S
C1048      C1049   1.407       .  A
C1048      H1053   1.083       .  S
C1049      C1050   1.419       .  A
C1050     Br1051   1.924       .  S
C1055      C1056   1.404       .  A
C1055      C1060   1.401       .  A
C1055      H1062   1.083       .  S
C1056      C1057   1.411       .  A
C1057      C1058   1.396       .  A
C1057     Br1064   1.923       .  S
C1058      C1059   1.402       .  A
C1058      H1063   1.084       .  S
C1059      C1060   1.410       .  A
C1060     Br1061   1.919       .  S
C1065      C1066   1.407       .  A
C1065      C1070   1.408       .  A
C1065      H1072   1.083       .  S
C1066      C1067   1.416       .  A
C1067      C1068   1.394       .  A
C1067     Br1074   1.925       .  S
C1068      C1069   1.403       .  A
C1068      H1073   1.083       .  S
C1069      C1070   1.416       .  A
C1070     Br1071   1.919       .  S
C1075      C1076   1.407       .  A
C1075      C1080   1.396       .  A
C1075      H1082   1.083       .  S
C1076      C1077   1.412       .  A
C1077      C1078   1.399       .  A
C1077     Br1084   1.920       .  S
C1078      C1079   1.406       .  A
C1078      H1083   1.083       .  S
C1079      C1080   1.411       .  A
C1080     Br1081   1.922       .  S
C1085      C1086   1.406       .  A
C1085      C1090   1.405   1_545  A
C1085      H1092   1.084       .  S
C1086      C1087   1.410       .  A
C1087      C1088   1.400   1_545  A
C1087     Br1094   1.920       .  S
C1088      C1089   1.405       .  A
C1088      H1093   1.084       .  S
C1089      C1090   1.413       .  A
C1090     Br1091   1.919       .  S
C1095      C1096   1.406       .  A
C1095      C1100   1.394       .  A
C1095      H1102   1.083       .  S
C1096      C1097   1.417       .  A
C1097      C1098   1.406       .  A
C1097     Br1104   1.920       .  S
C1098      C1099   1.406       .  A
C1098      H1103   1.083       .  S
C1099      C1100   1.408       .  A
C1100     Br1101   1.922       .  S
C1105      C1106   1.404       .  A
C1105      C1110   1.395       .  A
C1105      H1112   1.084       .  S
C1106      C1107   1.410       .  A
C1107      C1108   1.402       .  A
C1107     Br1114   1.919       .  S
C1108      C1109   1.407       .  A
C1108      H1113   1.083       .  S
C1109      C1110   1.411       .  A
C1110     Br1111   1.922       .  S
C1115      C1116   1.405       .  A
C1115      C1120   1.397       .  A
C1115      H1122   1.084       .  S
C1116      C1117   1.413       .  A
C1117      C1118   1.405       .  A
C1117     Br1124   1.918       .  S
C1118      C1119   1.406       .  A
C1118      H1123   1.083       .  S
C1119      C1120   1.410       .  A
C1120     Br1121   1.921       .  S
C1125      C1126   1.399       .  A
C1125      C1130   1.395       .  A
C1125      H1132   1.084       .  S
C1126      C1127   1.415       .  A
C1127      C1128   1.401       .  A
C1127     Br1134   1.920       .  S
C1128      C1129   1.403       .  A
C1128      H1133   1.083       .  S
C1129      C1130   1.417       .  A
C1130     Br1131   1.924       .  S
C1135      C1136   1.401       .  A
C1135      C1140   1.402       .  A
C1135      H1142   1.084       .  S
C1136      C1137   1.410       .  A
C1137      C1138   1.401       .  A
C1137     Br1144   1.921       .  S
C1138      C1139   1.407       .  A
C1138      H1143   1.083       .  S
C1139      C1140   1.419       .  A
C1140     Br1141   1.921       .  S
C1145      C1146   1.403       .  A
C1145      C1150   1.399       .  A
C1145      H1152   1.083       .  S
C1146      C1147   1.415       .  A
C1147      C1148   1.398       .  A
C1147     Br1154   1.922       .  S
C1148      C1149   1.401       .  A
C1148      H1153   1.084       .  S
C1149      C1150   1.414       .  A
C1150     Br1151   1.921       .  S
C1155      C1156   1.405       .  A
C1155      C1160   1.402       .  A
C1155      H1162   1.084       .  S
C1156      C1157   1.411       .  A
C1157      C1158   1.397       .  A
C1157     Br1164   1.922       .  S
C1158      C1159   1.402       .  A
C1158      H1163   1.084       .  S
C1159      C1160   1.411       .  A
C1160     Br1161   1.920       .  S
C1165      C1166   1.405       .  A
C1165      C1170   1.402       .  A
C1165      H1172   1.083       .  S
C1166      C1167   1.412       .  A
C1167      C1168   1.395       .  A
C1167     Br1174   1.920       .  S
C1168      C1169   1.401       .  A
C1168      H1173   1.084       .  S
C1169      C1170   1.408       .  A
C1170     Br1171   1.918       .  S
C1175      C1176   1.404       .  A
C1175      C1180   1.399       .  A
C1175      H1182   1.083       .  S
C1176      C1177   1.412       .  A
C1177      C1178   1.400       .  A
C1177     Br1184   1.922       .  S
C1178      C1179   1.407       .  A
C1178      H1183   1.083       .  S
C1179      C1180   1.413       .  A
C1180     Br1181   1.920       .  S
C1185      C1186   1.403   1_554  A
C1185      C1190   1.398       .  A
C1185      H1192   1.084   1_554  S
C1186      C1187   1.414       .  A
C1187      C1188   1.406   1_556  A
C1187     Br1194   1.920       .  S
C1188      C1189   1.407       .  A
C1188      H1193   1.083       .  S
C1189      C1190   1.413       .  A
C1190     Br1191   1.921       .  S
C1195      C1196   1.405       .  A
C1195      C1200   1.398       .  A
C1195      H1202   1.083       .  S
C1196      C1197   1.419       .  A
C1197      C1198   1.400       .  A
C1197     Br1204   1.922       .  S
C1198      C1199   1.400       .  A
C1198      H1203   1.084       .  S
C1199      C1200   1.411       .  A
C1200     Br1201   1.923       .  S
C1205      C1206   1.404       .  A
C1205      C1210   1.396       .  A
C1205      H1212   1.084       .  S
C1206      C1207   1.413       .  A
C1207      C1208   1.405       .  A
C1207     Br1214   1.920       .  S
C1208      C1209   1.407       .  A
C1208      H1213   1.084       .  S
C1209      C1210   1.409       .  A
C1210     Br1211   1.920       .  S
C1215      C1216   1.408       .  A
C1215      C1220   1.407       .  A
C1215      H1222   1.083       .  S
C1216      C1217   1.416       .  A
C1217      C1218   1.395       .  A
C1217     Br1224   1.924       .  S
C1218      C1219   1.404       .  A
C1218      H1223   1.083       .  S
C1219      C1220   1.415       .  A
C1220     Br1221   1.920       .  S
C1225      C1226   1.405       .  A
C1225      C1230   1.399       .  A
C1225      H1232   1.083       .  S
C1226      C1227   1.412       .  A
C1227      C1228   1.402       .  A
C1227     Br1234   1.922       .  S
C1228      C1229   1.407       .  A
C1228      H1233   1.083       .  S
C1229      C1230   1.411       .  A
C1230     Br1231   1.920       .  S
C1235      C1236   1.401       .  A
C1235      C1240   1.399       .  A
C1235      H1242   1.084       .  S
C1236      C1237   1.410       .  A
C1237      C1238   1.400       .  A
C1237     Br1244   1.920       .  S
C1238      C1239   1.406       .  A
C1238      H1243   1.083       .  S
C1239      C1240   1.419       .  A
C1240     Br1241   1.923       .  S
C1245      C1246   1.406       .  A
C1245      C1250   1.407       .  A
C1245      H1252   1.083       .  S
C1246      C1247   1.414       .  A
C1247      C1248   1.395       .  A
C1247     Br1254   1.923       .  S
C1248      C1249   1.402       .  A
C1248      H1253   1.083       .  S
C1249      C1250   1.417       .  A
C1250     Br1251   1.921       .  S
C1255      C1256   1.402       .  A
C1255      C1260   1.399       .  A
C1255      H1262   1.084       .  S
C1256      C1257   1.414       .  A
C1257      C1258   1.402       .  A
C1257     Br1264   1.921       .  S
C1258      C1259   1.405       .  A
C1258      H1263   1.083       .  S
C1259      C1260   1.418       .  A
C1260     Br1261   1.923       .  S
C1265      C1266   1.404       .  A
C1265      C1270   1.393       .  A
C1265      H1272   1.083       .  S
C1266      C1267   1.414       .  A
C1267      C1268   1.410       .  A
C1267     Br1274   1.919       .  S
C1268      C1269   1.410       .  A
C1268      H1273   1.083       .  S
C1269      C1270   1.414       .  A
C1270     Br1271   1.925       .  S
C1275      C1276   1.407       .  A
C1275      C1280   1.401       .  A
C1275      H1282   1.083       .  S
C1276      C1277   1.412       .  A
C1277      C1278   1.399       .  A
C1277     Br1284   1.921       .  S
C1278      C1279   1.407       .  A
C1278      H1283   1.083       .  S
C1279      C1280   1.413       .  A
C1280     Br1281   1.920       .  S
C1285      C1286   1.404       .  A
C1285      C1290   1.401       .  A
C1285      H1292   1.084       .  S
C1286      C1287   1.407       .  A
C1287      C1288   1.399       .  A
C1287     Br1294   1.920       .  S
C1288      C1289   1.409       .  A
C1288      H1293   1.083       .  S
C1289      C1290   1.415       .  A
C1290     Br1291   1.921       .  S
C1295      C1296   1.400   1_545  A
C1295      C1300   1.401       .  A
C1295      H1302   1.084       .  S
C1296      C1297   1.408       .  A
C1297      C1298   1.399       .  A
C1297     Br1304   1.922       .  S
C1298      C1299   1.407   1_565  A
C1298      H1303   1.083       .  S
C1299      C1300   1.415       .  A
C1300     Br1301   1.919       .  S
C1305      C1306   1.401       .  A
C1305      C1310   1.400       .  A
C1305      H1312   1.084       .  S
C1306      C1307   1.411       .  A
C1307      C1308   1.401       .  A
C1307     Br1314   1.920       .  S
C1308      C1309   1.406       .  A
C1308      H1313   1.083       .  S
C1309      C1310   1.420       .  A
C1310     Br1311   1.923       .  S
C1315      C1316   1.402       .  A
C1315      C1320   1.397       .  A
C1315      H1322   1.084       .  S
C1316      C1317   1.409       .  A
C1317      C1318   1.401       .  A
C1317     Br1324   1.920       .  S
C1318      C1319   1.409       .  A
C1318      H1323   1.083       .  S
C1319      C1320   1.414       .  A
C1320     Br1321   1.921       .  S
C1325      C1326   1.406       .  A
C1325      C1330   1.402       .  A
C1325      H1332   1.083       .  S
C1326      C1327   1.414       .  A
C1327      C1328   1.396       .  A
C1327     Br1334   1.923       .  S
C1328      C1329   1.405       .  A
C1328      H1333   1.084       .  S
C1329      C1330   1.412       .  A
C1330     Br1331   1.919       .  S
C1335      C1336   1.405       .  A
C1335      C1340   1.402       .  A
C1335      H1342   1.084       .  S
C1336      C1337   1.409       .  A
C1337      C1338   1.394       .  A
C1337     Br1344   1.922       .  S
C1338      C1339   1.407       .  A
C1338      H1343   1.083       .  S
C1339      C1340   1.414       .  A
C1340     Br1341   1.920       .  S
C1345      C1346   1.406       .  A
C1345      C1350   1.403       .  A
C1345      H1352   1.083       .  S
C1346      C1347   1.412       .  A
C1347      C1348   1.400       .  A
C1347     Br1354   1.921       .  S
C1348      C1349   1.407       .  A
C1348      H1353   1.083       .  S
C1349      C1350   1.414       .  A
C1350     Br1351   1.920       .  S
C1355      C1356   1.407       .  A
C1355      C1360   1.398       .  A
C1355      H1362   1.083       .  S
C1356      C1357   1.414       .  A
C1357      C1358   1.399       .  A
C1357     Br1364   1.919       .  S
C1358      C1359   1.402       .  A
C1358      H1363   1.084       .  S
C1359      C1360   1.411       .  A
C1360     Br1361   1.923       .  S
C1365      C1366   1.406       .  A
C1365      C1370   1.393       .  A
C1365      H1372   1.083       .  S
C1366      C1367   1.412       .  A
C1367      C1368   1.404       .  A
C1367     Br1374   1.918       .  S
C1368      C1369   1.408       .  A
C1368      H1373   1.083       .  S
C1369      C1370   1.409       .  A
C1370     Br1371   1.923       .  S
C1375      C1376   1.404       .  A
C1375      C1380   1.398       .  A
C1375      H1382   1.084       .  S
C1376      C1377   1.409       .  A
C1377      C1378   1.397       .  A
C1377     Br1384   1.921       .  S
C1378      C1379   1.404       .  A
C1378      H1383   1.084       .  S
C1379      C1380   1.410       .  A
C1380     Br1381   1.920       .  S
C1385      C1386   1.408       .  A
C1385      C1390   1.409       .  A
C1385      H1392   1.083       .  S
C1386      C1387   1.415       .  A
C1387      C1388   1.392       .  A
C1387     Br1394   1.924       .  S
C1388      C1389   1.402       .  A
C1388      H1393   1.084       .  S
C1389      C1390   1.414       .  A
C1390     Br1391   1.919       .  S
C1395      C1396   1.407       .  A
C1395      C1400   1.403       .  A
C1395      H1402   1.083       .  S
C1396      C1397   1.413       .  A
C1397      C1398   1.397       .  A
C1397     Br1404   1.922       .  S
C1398      C1399   1.406       .  A
C1398      H1403   1.083       .  S
C1399      C1400   1.413       .  A
C1400     Br1401   1.920       .  S
C1405      C1406   1.403       .  A
C1405      C1410   1.394       .  A
C1405      H1412   1.083       .  S
C1406      C1407   1.416       .  A
C1407      C1408   1.408       .  A
C1407     Br1414   1.920       .  S
C1408      C1409   1.406       .  A
C1408      H1413   1.083       .  S
C1409      C1410   1.413       .  A
C1410     Br1411   1.922       .  S
C1415      C1416   1.404   1_556  A
C1415      C1420   1.396       .  A
C1415      H1422   1.084       .  S
C1416      C1417   1.413       .  A
C1417      C1418   1.399       .  A
C1417     Br1424   1.921       .  S
C1418      C1419   1.402       .  A
C1418      H1423   1.084       .  S
C1419      C1420   1.406   1_554  A
C1420     Br1421   1.920       .  S
C1425      C1426   1.403       .  A
C1425      C1430   1.401       .  A
C1425      H1432   1.084       .  S
C1426      C1427   1.413       .  A
C1427      C1428   1.400       .  A
C1427     Br1434   1.921       .  S
C1428      C1429   1.405       .  A
C1428      H1433   1.083       .  S
C1429      C1430   1.417       .  A
C1430     Br1431   1.921       .  S
C1435      C1436   1.406       .  A
C1435      C1440   1.401       .  A
C1435      H1442   1.083       .  S
C1436      C1437   1.420       .  A
C1437      C1438   1.403       .  A
C1437     Br1444   1.923       .  S
C1438      C1439   1.402       .  A
C1438      H1443   1.084       .  S
C1439      C1440   1.411       .  A
C1440     Br1441   1.921       .  S
C1445      C1446   1.405       .  A
C1445      C1450   1.404       .  A
C1445      H1452   1.083       .  S
C1446      C1447   1.416       .  A
C1447      C1448   1.400       .  A
C1447     Br1454   1.923       .  S
C1448      C1449   1.405       .  A
C1448      H1453   1.083       .  S
C1449      C1450   1.415       .  A
C1450     Br1451   1.919       .  S
C1455      C1456   1.411       .  A
C1455      C1460   1.405       .  A
C1455      H1462   1.083       .  S
C1456      C1457   1.414       .  A
C1457      C1458   1.396       .  A
C1457     Br1464   1.921       .  S
C1458      C1459   1.403       .  A
C1458      H1463   1.084       .  S
C1459      C1460   1.411       .  A
C1460     Br1461   1.920       .  S
C1465      C1466   1.408       .  A
C1465      C1470   1.395       .  A
C1465      H1472   1.083       .  S
C1466      C1467   1.414       .  A
C1467      C1468   1.400       .  A
C1467     Br1474   1.920       .  S
C1468      C1469   1.404       .  A
C1468      H1473   1.084       .  S
C1469      C1470   1.407       .  A
C1470     Br1471   1.922       .  S
C1475      C1476   1.405       .  A
C1475      C1480   1.400       .  A
C1475      H1482   1.084       .  S
C1476      C1477   1.412       .  A
C1477      C1478   1.402       .  A
C1477     Br1484   1.919       .  S
C1478      C1479   1.405       .  A
C1478      H1483   1.084       .  S
C1479      C1480   1.412       .  A
C1480     Br1481   1.922       .  S
C1485      C1486   1.405       .  A
C1485      C1490   1.402       .  A
C1485      H1492   1.084       .  S
C1486      C1487   1.407       .  A
C1487      C1488   1.396       .  A
C1487     Br1494   1.921       .  S
C1488      C1489   1.408       .  A
C1488      H1493   1.083       .  S
C1489      C1490   1.414       .  A
C1490     Br1491   1.920       .  S
C1495      C1496   1.406       .  A
C1495      C1500   1.400       .  A
C1495      H1502   1.084       .  S
C1496      C1497   1.411       .  A
C1497      C1498   1.401       .  A
C1497     Br1504   1.921       .  S
C1498      C1499   1.408       .  A
C1498      H1503   1.083       .  S
C1499      C1500   1.413       .  A
C1500     Br1501   1.921       .  S
C1505      C1506   1.403       .  A
C1505      C1510   1.393       .  A
C1505      H1512   1.084       .  S
C1506      C1507   1.415       .  A
C1507      C1508   1.405       .  A
C1507     Br1514   1.919       .  S
C1508      C1509   1.406       .  A
C1508      H1513   1.083       .  S
C1509      C1510   1.413       .  A
C1510     Br1511   1.924       .  S
C1515      C1516   1.410       .  A
C1515      C1520   1.405       .  A
C1515      H1522   1.083       .  S
C1516      C1517   1.415       .  A
C1517      C1518   1.396       .  A
C1517     Br1524   1.921       .  S
C1518      C1519   1.401       .  A
C1518      H1523   1.084       .  S
C1519      C1520   1.410       .  A
C1520     Br1521   1.920       .  S
C1525      C1526   1.403       .  A
C1525      C1530   1.404       .  A
C1525      H1532   1.083       .  S
C1526      C1527   1.411       .  A
C1527      C1528   1.397       .  A
C1527     Br1534   1.922       .  S
C1528      C1529   1.405       .  A
C1528      H1533   1.083       .  S
C1529      C1530   1.418       .  A
C1530     Br1531   1.921       .  S
C1535      C1536   1.403       .  A
C1535      C1540   1.399       .  A
C1535      H1542   1.084       .  S
C1536      C1537   1.410       .  A
C1537      C1538   1.404       .  A
C1537     Br1544   1.919       .  S
C1538      C1539   1.407       .  A
C1538      H1543   1.083       .  S
C1539      C1540   1.413       .  A
C1540     Br1541   1.921       .  S
C1545      C1546   1.401       .  A
C1545      C1550   1.400       .  A
C1545      H1552   1.083       .  S
C1546      C1547   1.415       .  A
C1547      C1548   1.401       .  A
C1547     Br1554   1.924       .  S
C1548      C1549   1.405       .  A
C1548      H1553   1.083       .  S
C1549      C1550   1.417       .  A
C1550     Br1551   1.921       .  S
C1555      C1556   1.403       .  A
C1555      C1560   1.396       .  A
C1555      H1562   1.084       .  S
C1556      C1557   1.410       .  A
C1557      C1558   1.397       .  A
C1557     Br1564   1.919       .  S
C1558      C1559   1.405       .  A
C1558      H1563   1.083       .  S
C1559      C1560   1.413       .  A
C1560     Br1561   1.923       .  S
C1565      C1566   1.404   1_655  A
C1565      C1570   1.405       .  A
C1565      H1572   1.084       .  S
C1566      C1567   1.406       .  A
C1567      C1568   1.397       .  A
C1567     Br1574   1.920       .  S
C1568      C1569   1.406   1_455  A
C1568      H1573   1.083       .  S
C1569      C1570   1.415       .  A
C1570     Br1571   1.920       .  S
C1575      C1576   1.402       .  A
C1575      C1580   1.395       .  A
C1575      H1582   1.084       .  S
C1576      C1577   1.414       .  A
C1577      C1578   1.407       .  A
C1577     Br1584   1.919       .  S
C1578      C1579   1.406       .  A
C1578      H1583   1.083       .  S
C1579      C1580   1.413       .  A
C1580     Br1581   1.923       .  S
