geometry optimzed in LAMMPS
_audit_creation_date              2020-12-01 
_audit_creation_method            'lammps2cif' 
_symmetry_space_group_name_H-M    'P1' 
_symmetry_Int_Tables_number       1 
_symmetry_cell_setting            triclinic 
loop_ 
_symmetry_equiv_pos_as_xyz 
  x,y,z 
_cell_length_a                    53.54440959 
_cell_length_b                    53.546510239069555 
_cell_length_c                    53.56183681202496 
_cell_angle_alpha                 90.06658852185666 
_cell_angle_beta                  90.04415939386601 
_cell_angle_gamma                 90.01323727918407 
loop_ 
_atom_site_label 
_atom_site_type_symbol 
_atom_site_fract_x 
_atom_site_fract_y 
_atom_site_fract_z 
_atom_site_charge 
O1          O  0.61489986  0.28523781  0.92348467    -0.72500
O2          O  0.60895632  0.25386752  0.85564325    -0.73500
O3          O  0.64629599  0.25499982  0.89278443    -0.62100
O4          O  0.57733878  0.28428856  0.88605707    -0.70500
O5          O  0.59363408  0.31824723  0.86874903    -0.70100
O6          O  0.66235260  0.28937258  0.87606094    -0.61300
O7          O  0.62479852  0.28810874  0.83845156    -0.73800
O8          O  0.63130308  0.31928558  0.90643677    -0.72600
Cu9        Cu  0.61124898  0.26843344  0.89012280     1.04600
Cu10       Cu  0.62853315  0.30496919  0.87184605     1.04300
C11         C  0.62438155  0.30701691  0.92567374     0.93700
C12         C  0.61622078  0.26593330  0.83641347     0.92800
C13         C  0.66514800  0.26760459  0.88537878     0.85000
C14         C  0.57466814  0.30581003  0.87611711     0.91200
O15         O  0.26443454  0.63199840  0.89341431    -0.72500
O16         O  0.29406837  0.56343194  0.88720353    -0.73500
O17         O  0.29329725  0.60039797  0.92503063    -0.62100
O18         O  0.26513314  0.59544908  0.85583504    -0.70500
O19         O  0.30027768  0.61088460  0.84013217    -0.70100
O20         O  0.32791490  0.61732021  0.90970394    -0.61300
O21         O  0.32902686  0.57961532  0.87188248    -0.73800
O22         O  0.29930767  0.64828470  0.87796391    -0.72600
Cu23       Cu  0.27807021  0.59718064  0.89092579     1.04600
Cu24       Cu  0.31540327  0.61455666  0.87440417     1.04300
C25         C  0.27715539  0.65090586  0.88643793     0.93700
C26         C  0.31611031  0.56068699  0.87848756     0.92800
C27         C  0.31487096  0.61005407  0.92828682     0.85000
C28         C  0.27806649  0.60268265  0.83716696     0.91200
O29         O  0.39353255  0.34361624  0.84570704    -0.72500
O30         O  0.32576618  0.35010693  0.81397176    -0.73500
O31         O  0.36358557  0.31253977  0.81496531    -0.62100
O32         O  0.35553992  0.38123772  0.84461467    -0.70500
O33         O  0.37340857  0.39774314  0.81106537    -0.70100
O34         O  0.38019351  0.32936201  0.78092634    -0.61300
O35         O  0.34305505  0.36670746  0.78016060    -0.73800
O36         O  0.41077477  0.36023882  0.81188633    -0.72600
Cu37       Cu  0.35903486  0.34631154  0.83103741     1.04600
Cu38       Cu  0.37751336  0.36410945  0.79487810     1.04300
C39         C  0.41284773  0.35069999  0.83363645     0.93700
C40         C  0.32375677  0.35933217  0.79207519     0.92800
C41         C  0.37277299  0.31023027  0.79307347     0.85000
C42         C  0.36305792  0.40029098  0.83240247     0.91200
O43         O  0.62219882  0.64820528  0.19863286    -0.72500
O44         O  0.62871735  0.57917289  0.17029678    -0.73500
O45         O  0.59102873  0.61672805  0.16986158    -0.62100
O46         O  0.65982807  0.61064966  0.19911787    -0.70500
O47         O  0.64363642  0.59515371  0.23398654    -0.70100
O48         O  0.57482312  0.60073601  0.20449531    -0.61300
O49         O  0.61228756  0.56343915  0.20495723    -0.73800
O50         O  0.60644977  0.63236656  0.23356036    -0.72600
Cu51       Cu  0.62598088  0.61421077  0.18322995     1.04600
Cu52       Cu  0.60869325  0.59733738  0.22043459     1.04300
C53         C  0.61353684  0.65110637  0.22066226     0.93700
C54         C  0.62168565  0.56045523  0.18324816     0.92800
C55         C  0.57209730  0.60986393  0.18264060     0.85000
C56         C  0.66252608  0.60215170  0.22124155     0.91200
O57         O  0.69046530  0.36091325  0.08985222    -0.72500
O58         O  0.72031053  0.36618944  0.15858537    -0.73500
O59         O  0.72019990  0.32955974  0.12067313    -0.62100
O60         O  0.69067832  0.39788268  0.12780928    -0.70500
O61         O  0.65646015  0.38142146  0.14449067    -0.70100
O62         O  0.68569015  0.31282513  0.13646052    -0.61300
O63         O  0.68581243  0.34981549  0.17475311    -0.73800
O64         O  0.65621055  0.34423089  0.10621933    -0.72600
Cu65       Cu  0.70658848  0.36426572  0.12364247     1.04600
Cu66       Cu  0.66980371  0.34653861  0.14102249     1.04300
C67         C  0.66879068  0.35127548  0.08724034     0.93700
C68         C  0.70778105  0.35872198  0.17744621     0.92800
C69         C  0.70764419  0.31046184  0.12744961     0.85000
C70         C  0.66906540  0.40042835  0.13754405     0.91200
O71         O  0.36040723  0.66995657  0.17772314    -0.72500
O72         O  0.35272900  0.64121666  0.10869999    -0.73500
O73         O  0.39068345  0.64027627  0.14636920    -0.62100
O74         O  0.32244321  0.67081926  0.14045328    -0.70500
O75         O  0.33899428  0.70538060  0.12464328    -0.70100
O76         O  0.40738675  0.67464459  0.13029056    -0.61300
O77         O  0.36974291  0.67559314  0.09297276    -0.73800
O78         O  0.37650891  0.70461152  0.16161576    -0.72600
Cu79       Cu  0.35600416  0.65432875  0.14382915     1.04600
Cu80       Cu  0.37378528  0.69120921  0.12676270     1.04300
C81         C  0.36942443  0.69189290  0.18046242     0.93700
C82         C  0.35990560  0.65406774  0.08994473     0.92800
C83         C  0.40980717  0.65281538  0.13960837     0.85000
C84         C  0.31997110  0.69295612  0.13191293     0.91200
O85         O  0.61487995  0.17534224  0.59068748    -0.72500
O86         O  0.61009614  0.20533267  0.65911940    -0.73500
O87         O  0.64689031  0.20426495  0.62172308    -0.62100
O88         O  0.57762054  0.17639698  0.62831015    -0.70500
O89         O  0.59314705  0.14166247  0.64476581    -0.70100
O90         O  0.66269624  0.16945296  0.63777234    -0.61300
O91         O  0.62529968  0.17048870  0.67566317    -0.73800
O92         O  0.63082463  0.14062128  0.60678239    -0.72600
Cu93       Cu  0.61178060  0.19147380  0.62436496     1.04600
Cu94       Cu  0.62849122  0.15426727  0.64179511     1.04300
C95         C  0.62400549  0.15349324  0.58788173     0.93700
C96         C  0.61723242  0.19281639  0.67811486     0.92800
C97         C  0.66564174  0.19140190  0.62887782     0.85000
C98         C  0.57443746  0.15478774  0.63784940     0.91200
O99         O  0.65142176  0.08166441  0.36812153    -0.72500
O100        O  0.68355012  0.14928280  0.37411336    -0.73500
O101        O  0.68185497  0.11115219  0.33694324    -0.62100
O102        O  0.65298476  0.11983847  0.40559500    -0.70500
O103        O  0.68675877  0.10212732  0.42189780    -0.70100
O104        O  0.71603569  0.09429851  0.35333594    -0.61300
O105        O  0.71764187  0.13201374  0.39021827    -0.73800
O106        O  0.68533589  0.06442510  0.38464594    -0.72600
Cu107      Cu  0.66624093  0.11609052  0.37066662     1.04600
Cu108      Cu  0.70258749  0.09758667  0.38815795     1.04300
C109        C  0.66358440  0.06234873  0.37505254     0.93700
C110        C  0.70567964  0.15128961  0.38286244     0.92800
C111        C  0.70350142  0.10146060  0.33436370     0.85000
C112        C  0.66541053  0.11242496  0.42456694     0.91200
O113        O  0.32378244  0.11059525  0.69764957    -0.72500
O114        O  0.39204359  0.12034121  0.66794245    -0.73500
O115        O  0.35540920  0.08126031  0.66700548    -0.62100
O116        O  0.36031390  0.14946986  0.69860546    -0.70500
O117        O  0.37715022  0.13249901  0.73248339    -0.70100
O118        O  0.37266457  0.06472930  0.70088208    -0.61300
O119        O  0.40893344  0.10317038  0.70169917    -0.73800
O120        O  0.34104154  0.09437578  0.73170419    -0.72600
Cu121      Cu  0.35728868  0.11598284  0.68155681     1.04600
Cu122      Cu  0.37555529  0.09806783  0.71780601     1.04300
C123        C  0.32176564  0.10126274  0.71950426     0.93700
C124        C  0.41124603  0.11347170  0.68034251     0.92800
C125        C  0.36313803  0.06223458  0.67914620     0.85000
C126        C  0.36940430  0.15164175  0.72057702     0.91200
O127        O  0.32783881  0.84350989  0.60803375    -0.72500
O128        O  0.29900065  0.85282931  0.67670563    -0.73500
O129        O  0.29814096  0.81394857  0.64024874    -0.62100
O130        O  0.32868479  0.88250175  0.64444745    -0.70500
O131        O  0.29450171  0.89857412  0.62733306    -0.70100
O132        O  0.26352866  0.83022782  0.62421717    -0.61300
O133        O  0.26461638  0.86893384  0.66002197    -0.73800
O134        O  0.29348975  0.85968999  0.59135429    -0.72600
Cu135      Cu  0.31463955  0.84765784  0.64291978     1.04600
Cu136      Cu  0.27786555  0.86496288  0.62512453     1.04300
C137        C  0.31514973  0.84999498  0.58889771     0.93700
C138        C  0.27713907  0.86205843  0.67913809     0.92800
C139        C  0.27596955  0.81133669  0.63180263     0.85000
C140        C  0.31633531  0.90133173  0.63659079     0.91200
O141        O  0.57332718  0.86009191  0.30928985    -0.72500
O142        O  0.64187624  0.86540300  0.27978980    -0.73500
O143        O  0.60454420  0.82829738  0.28019657    -0.62100
O144        O  0.61097369  0.89740308  0.30902842    -0.70500
O145        O  0.62724595  0.88136316  0.34362880    -0.70100
O146        O  0.62055979  0.81242201  0.31499660    -0.61300
O147        O  0.65822076  0.85004740  0.31468118    -0.73800
O148        O  0.58937931  0.84374133  0.34385216    -0.72600
Cu149      Cu  0.60706895  0.86339402  0.29340175     1.04600
Cu150      Cu  0.62437859  0.84636236  0.33053978     1.04300
C151        C  0.57052007  0.85075665  0.33104008     0.93700
C152        C  0.66080543  0.85852248  0.29253788     0.92800
C153        C  0.61172520  0.80952227  0.29302077     0.85000
C154        C  0.62048192  0.90024337  0.33073288     0.91200
O155        O  0.35381081  0.81874608  0.40836582    -0.72500
O156        O  0.35946695  0.78747437  0.34064899    -0.73500
O157        O  0.32244885  0.78826845  0.37879460    -0.62100
O158        O  0.39106860  0.81767415  0.37029089    -0.70500
O159        O  0.40750370  0.78372634  0.38752512    -0.79700
O160        O  0.33934627  0.75420826  0.39535891    -0.61300
O161        O  0.37582948  0.75325496  0.35739711    -0.73800
O162        O  0.37071864  0.78495760  0.42545014    -0.72600
Cu163      Cu  0.35614636  0.80425506  0.37394937     1.04600
Cu164      Cu  0.37396856  0.76787886  0.39205994     1.04300
C165        C  0.36110449  0.80669956  0.42759158     0.93700
C166        C  0.36835980  0.76546831  0.33831571     0.92800
C167        C  0.32019476  0.76647108  0.38821117     0.85000
C168        C  0.41007888  0.80519441  0.37750715     0.91200
O169        O  0.07455665  0.78473335  0.12957673    -0.72500
O170        O  0.14349494  0.75515963  0.12460275    -0.73500
O171        O  0.10584062  0.75576147  0.16144951    -0.62100
O172        O  0.11229082  0.78421032  0.09237457    -0.70500
O173        O  0.12859686  0.81897747  0.10807521    -0.70100
O174        O  0.12175156  0.79063798  0.17734557    -0.61300
O175        O  0.15968649  0.79016327  0.13990862    -0.73800
O176        O  0.09075855  0.81932951  0.14578153    -0.72600
Cu177      Cu  0.10847197  0.76878429  0.12638638     1.04600
Cu178      Cu  0.12574856  0.80602212  0.14328022     1.04300
C179        C  0.07181494  0.80651697  0.13893514     0.93700
C180        C  0.16239340  0.76792144  0.13166710     0.92800
C181        C  0.11283192  0.76869114  0.18024800     0.85000
C182        C  0.12154043  0.80599861  0.08931997     0.91200
O183        O  0.85186712  0.87944505  0.16730549    -0.72500
O184        O  0.85942888  0.81127944  0.19775388    -0.73500
O185        O  0.82121826  0.84832852  0.19687416    -0.62100
O186        O  0.89021986  0.84228629  0.16808888    -0.70500
O187        O  0.90613537  0.85921111  0.20246789    -0.70100
O188        O  0.83710652  0.86542034  0.23119494    -0.61300
O189        O  0.87456077  0.82846976  0.23236778    -0.73800
O190        O  0.86834115  0.89637741  0.20142843    -0.72600
Cu191      Cu  0.85516590  0.84476056  0.18126401     1.04600
Cu192      Cu  0.87213268  0.86300060  0.21802134     1.04300
C193        C  0.85870226  0.89864977  0.17973706     0.93700
C194        C  0.86789360  0.80920931  0.21997440     0.92800
C195        C  0.81834380  0.85771875  0.21862568     0.85000
C196        C  0.90905353  0.84950969  0.18086353     0.91200
O197        O  0.19023850  0.89705859  0.88850148    -0.72500
O198        O  0.21723286  0.82751565  0.89465617    -0.73500
O199        O  0.21927107  0.86481775  0.85774258    -0.62100
O200        O  0.18814842  0.85957571  0.92569208    -0.70500
O201        O  0.15355950  0.84390969  0.90897500    -0.70100
O202        O  0.18434389  0.85042725  0.84057607    -0.61300
O203        O  0.18248510  0.81233057  0.87778492    -0.73800
O204        O  0.15539783  0.88214555  0.87160633    -0.72600
Cu205      Cu  0.20487182  0.86277818  0.89228511     1.04600
Cu206      Cu  0.16767449  0.84669154  0.87416484     1.04300
C207        C  0.16871995  0.90059607  0.87882395     0.93700
C208        C  0.20427685  0.80902962  0.88695255     0.92800
C209        C  0.20675035  0.85839688  0.83846899     0.85000
C210        C  0.16613357  0.85068987  0.92810611     0.91200
O211        O  0.11011401  0.13463363  0.78336273    -0.72500
O212        O  0.11544884  0.06547742  0.81182745    -0.73500
O213        O  0.07832290  0.10314530  0.81211190    -0.62100
O214        O  0.14676282  0.09683121  0.78298763    -0.70500
O215        O  0.16322463  0.11278835  0.81759454    -0.70100
O216        O  0.09440351  0.11868236  0.84707367    -0.61300
O217        O  0.13252266  0.08111350  0.84627272    -0.73800
O218        O  0.12543825  0.15046184  0.81853578    -0.72600
Cu219      Cu  0.11204633  0.09947795  0.79639653     1.04600
Cu220      Cu  0.12943129  0.11630527  0.83363659     1.04300
C221        C  0.11693772  0.15340087  0.79644464     0.93700
C222        C  0.12537977  0.06239897  0.83330456     0.92800
C223        C  0.07552199  0.11204299  0.83405689     0.85000
C224        C  0.16574135  0.10372617  0.79564955     0.91200
O225        O  0.79501306  0.10097343  0.08943989    -0.72500
O226        O  0.76406887  0.09471362  0.15747623    -0.73500
O227        O  0.76458315  0.13186970  0.12022093    -0.62100
O228        O  0.79434687  0.06350115  0.12680143    -0.70500
O229        O  0.82847145  0.07992176  0.14378014    -0.70100
O230        O  0.79876216  0.14853488  0.13686029    -0.61300
O231        O  0.79845921  0.11072872  0.17431539    -0.73800
O232        O  0.82895627  0.11787039  0.10631337    -0.72600
Cu233      Cu  0.77834883  0.09715882  0.12285336     1.04600
Cu234      Cu  0.81488636  0.11481739  0.14089396     1.04300
C235        C  0.81667883  0.11073139  0.08715190     0.93700
C236        C  0.77646686  0.10176775  0.17660431     0.92800
C237        C  0.77689875  0.15092676  0.12759583     0.85000
C238        C  0.81593164  0.06090715  0.13660011     0.91200
O239        O  0.82716177  0.17519334  0.87854230    -0.72500
O240        O  0.89601913  0.14671179  0.87084163    -0.73500
O241        O  0.85862423  0.14586431  0.90893702    -0.62100
O242        O  0.86447815  0.17624371  0.84055387    -0.70500
O243        O  0.88011016  0.21083296  0.85733566    -0.70100
O244        O  0.87487458  0.18025089  0.92554581    -0.61300
O245        O  0.91202458  0.18104334  0.88780389    -0.73800
O246        O  0.84309797  0.20986873  0.89486381    -0.72600
Cu247      Cu  0.86104301  0.15977119  0.87415511     1.04600
Cu248      Cu  0.87813813  0.19666909  0.89199718     1.04300
C249        C  0.82428669  0.19701775  0.88775649     0.93700
C250        C  0.91486644  0.15946856  0.87797563     0.92800
C251        C  0.86552065  0.15844284  0.92801499     0.85000
C252        C  0.87304468  0.19839335  0.83823010     0.91200
O253        O  0.18607401  0.60992371  0.67534303    -0.72500
O254        O  0.15604391  0.61742462  0.60717884    -0.73500
O255        O  0.15617320  0.57924147  0.64414716    -0.62100
O256        O  0.18583769  0.64799636  0.63833525    -0.70500
O257        O  0.22031479  0.63182583  0.62192534    -0.70100
O258        O  0.19033215  0.56317772  0.62698098    -0.61300
O259        O  0.19022437  0.60110994  0.59026625    -0.73800
O260        O  0.22040672  0.59384248  0.65853097    -0.72600
Cu261      Cu  0.16981397  0.61417837  0.64182212     1.04600
Cu262      Cu  0.20649541  0.59688706  0.62380988     1.04300
C263        C  0.20806175  0.60097946  0.67765540     0.93700
C264        C  0.16845704  0.61058417  0.58800270     0.92800
C265        C  0.16861972  0.56039663  0.63646596     0.85000
C266        C  0.20781128  0.65071261  0.62947229     0.91200
O267        O  0.11329566  0.39803335  0.70316029    -0.72500
O268        O  0.10808155  0.33043731  0.73518521    -0.73500
O269        O  0.14489067  0.36835290  0.73428605    -0.62100
O270        O  0.07662336  0.36005353  0.70391134    -0.70500
O271        O  0.09358792  0.34254685  0.67036426    -0.70100
O272        O  0.16194636  0.35194030  0.70023669    -0.61300
O273        O  0.12506706  0.31356832  0.70131976    -0.73800
O274        O  0.13044645  0.38109326  0.66940687    -0.72600
Cu275      Cu  0.11011402  0.36485683  0.72029774     1.04600
Cu276      Cu  0.12834245  0.34669561  0.68414945     1.04300
C277        C  0.12274408  0.40023000  0.68137441     0.93700
C278        C  0.11581567  0.31132762  0.72319306     0.92800
C279        C  0.16415274  0.36134691  0.72205192     0.85000
C280        C  0.07436518  0.34986341  0.68243202     0.91200
O281        O  0.12235382  0.67316427  0.34027645    -0.72500
O282        O  0.12936125  0.64213368  0.40792587    -0.73500
O283        O  0.09172600  0.64217528  0.37019272    -0.62100
O284        O  0.15967212  0.67328988  0.37818342    -0.70500
O285        O  0.14228102  0.70706771  0.39487069    -0.70100
O286        O  0.07471341  0.67587420  0.38739881    -0.61300
O287        O  0.11193093  0.67565429  0.42507384    -0.73800
O288        O  0.10555500  0.70712683  0.35717180    -0.72600
Cu289      Cu  0.12634665  0.65648898  0.37355434     1.04600
Cu290      Cu  0.10795602  0.69256374  0.39175860     1.04300
C291        C  0.11317373  0.69506474  0.33804432     0.93700
C292        C  0.12204370  0.65414218  0.42717657     0.92800
C293        C  0.07249962  0.65429837  0.37747606     0.85000
C294        C  0.16159805  0.69513680  0.38761913     0.91200
O295        O  0.89508633  0.31761074  0.64305074    -0.72500
O296        O  0.82589284  0.28829196  0.63819584    -0.73500
O297        O  0.86423320  0.28897317  0.67531266    -0.62100
O298        O  0.85657155  0.31706150  0.60614198    -0.70500
O299        O  0.87257453  0.28231572  0.59010285    -0.70100
O300        O  0.87978163  0.25405297  0.65920739    -0.61300
O301        O  0.84195248  0.25335815  0.62261986    -0.73800
O302        O  0.91073370  0.28280654  0.62680679    -0.72600
Cu303      Cu  0.85991523  0.30424363  0.64122008     1.04600
Cu304      Cu  0.87684430  0.26696146  0.62411014     1.04300
C305        C  0.91380022  0.30472326  0.63574122     0.93700
C306        C  0.82312780  0.26609750  0.62979131     0.92800
C307        C  0.87293968  0.26694212  0.67809768     0.85000
C308        C  0.86320010  0.30406534  0.58725867     0.91200
O309        O  0.83921613  0.59649751  0.28252707    -0.72500
O310        O  0.90785104  0.60227409  0.31230776    -0.73500
O311        O  0.87064374  0.56469938  0.31155216    -0.62100
O312        O  0.87641981  0.63378746  0.28319806    -0.70500
O313        O  0.86005671  0.64970118  0.31782694    -0.70100
O314        O  0.85426668  0.58037402  0.34627708    -0.61300
O315        O  0.89141342  0.61858904  0.34672364    -0.73800
O316        O  0.82280721  0.61164394  0.31748151    -0.72600
Cu317      Cu  0.87412292  0.59873440  0.29621217     1.04600
Cu318      Cu  0.85657928  0.61559280  0.33332703     1.04300
C319        C  0.82024002  0.60325833  0.29529144     0.93700
C320        C  0.91041354  0.61168258  0.33408010     0.92800
C321        C  0.86142450  0.56163678  0.33331059     0.85000
C322        C  0.86906687  0.65257237  0.29592091     0.91200
O323        O  0.76949251  0.36466095  0.35401216    -0.72500
O324        O  0.79954426  0.35817239  0.42239974    -0.73500
O325        O  0.79971223  0.39572626  0.38494582    -0.62100
O326        O  0.76945948  0.32723007  0.39112982    -0.70500
O327        O  0.80378649  0.31072518  0.37473311    -0.70100
O328        O  0.83385921  0.37922843  0.36816988    -0.61300
O329        O  0.83357884  0.34122571  0.40583296    -0.73800
O330        O  0.80393463  0.34866167  0.33733072    -0.72600
Cu331      Cu  0.78339463  0.36207240  0.38874287     1.04600
Cu332      Cu  0.82001903  0.34441267  0.37097694     1.04300
C333        C  0.78197118  0.35768018  0.33494057     0.93700
C334        C  0.82107403  0.34822872  0.42490801     0.92800
C335        C  0.82133726  0.39828305  0.37520287     0.85000
C336        C  0.78186090  0.30820789  0.38379356     0.91200
C337        C  0.86015506  0.49730484  0.34527885     0.30200
C338        C  0.86463844  0.47191388  0.34043485    -0.36100
C339        C  0.85118653  0.45487371  0.35510404     0.16200
C340        C  0.83435679  0.46233536  0.37314857     0.22000
C341        C  0.83037219  0.48768186  0.37841358    -0.34200
C342        C  0.84391071  0.50469467  0.36387448     0.16100
O343        O  0.86900273  0.51636684  0.33243869    -0.26300
C344        C  0.85850515  0.53620121  0.34315943     0.05900
C345        C  0.84290052  0.53007323  0.36295813    -0.31100
O346        O  0.82211055  0.44341768  0.38303249    -0.23000
C347        C  0.83145620  0.42351642  0.37147130    -0.03000
C348        C  0.84975685  0.42947768  0.35401812    -0.17400
H349        H  0.87700479  0.46587804  0.32563343     0.20600
H350        H  0.81691840  0.49373285  0.39222444     0.19000
H351        H  0.83140148  0.54242785  0.37408557     0.18900
H352        H  0.85949197  0.41703819  0.34139784     0.14800
C353        C  0.86016485  0.31633088  0.52308959     0.30200
C354        C  0.86416037  0.31173627  0.49761097    -0.36100
C355        C  0.85071705  0.32685703  0.48099434     0.16200
C356        C  0.83427137  0.34508064  0.48888188     0.22000
C357        C  0.83072333  0.35007169  0.51435632    -0.34200
C358        C  0.84432226  0.33508336  0.53097197     0.16100
O359        O  0.86934939  0.30324235  0.54181353    -0.26300
C360        C  0.85949069  0.31394637  0.56195402     0.05900
C361        C  0.84393447  0.33397581  0.55635477    -0.31100
O362        O  0.82206080  0.35549094  0.47019827    -0.23000
C363        C  0.83111139  0.34405952  0.45007460    -0.03000
C364        C  0.84910981  0.32619316  0.45564319    -0.17400
H365        H  0.87625841  0.29687179  0.49119849     0.20600
H366        H  0.81764581  0.36407418  0.52078387     0.19000
H367        H  0.83297789  0.34523196  0.56907638     0.18900
H368        H  0.85856895  0.31361585  0.44295407     0.14800
C369        C  0.97426612  0.61348499  0.34795946     0.30200
C370        C  0.99972154  0.60831248  0.34446976    -0.36100
C371        C  0.01640941  0.62286930  0.35849945     0.16200
C372        C  0.00855998  0.64132446  0.37471629     0.22000
C373        C  0.98312344  0.64604871  0.37867897    -0.34200
C374        C  0.96646327  0.63141306  0.36477771     0.16100
O375        O  0.95555455  0.60368612  0.33526505    -0.26300
C376        C  0.93553688  0.61524438  0.34437088     0.05900
C377        C  0.94116633  0.63253691  0.36290536    -0.31100
O378        O  0.02727412  0.65428307  0.38406890    -0.23000
C379        C  0.04740559  0.64384560  0.37395081    -0.03000
C380        C  0.04182358  0.62404557  0.35805819    -0.17400
H381        H  0.00608768  0.59461328  0.33103953     0.20600
H382        H  0.97678799  0.66077655  0.39099180     0.19000
H383        H  0.92857955  0.64509018  0.37253168     0.18900
H384        H  0.05452945  0.61315269  0.34672571     0.14800
C385        C  0.02018949  0.33010698  0.65132757     0.30200
C386        C  0.00557152  0.31404826  0.63659672    -0.36100
C387        C  0.97962927  0.31752595  0.63805549     0.16200
C388        C  0.96881984  0.33588810  0.65258687     0.22000
C389        C  0.98344797  0.35212411  0.66706234    -0.34200
C390        C  0.00932992  0.34827222  0.66606048     0.16100
O391        O  0.04460257  0.32876852  0.65450050    -0.26300
C392        C  0.04937030  0.34611430  0.67168265     0.05900
C393        C  0.02814446  0.35885155  0.67951573    -0.31100
O394        O  0.94422398  0.33449914  0.65281349    -0.23000
C395        C  0.93918362  0.31488555  0.63840023    -0.03000
C396        C  0.96048600  0.30367509  0.62859286    -0.17400
H397        H  0.01377583  0.29909919  0.62573560     0.20600
H398        H  0.97515232  0.36595097  0.67925620     0.19000
H399        H  0.02671193  0.37322469  0.69367018     0.18900
H400        H  0.96171135  0.28698372  0.61723765     0.14800
C401        C  0.12575360  0.64029185  0.49084203     0.30200
C402        C  0.12178866  0.64431019  0.51638877    -0.36100
C403        C  0.13649660  0.63002255  0.53261683     0.16200
C404        C  0.15405871  0.61306464  0.52431834     0.22000
C405        C  0.15757956  0.60857269  0.49875168    -0.34200
C406        C  0.14273914  0.62276892  0.48250623     0.16100
O407        O  0.11565317  0.65315861  0.47247160    -0.26300
C408        C  0.12604771  0.64353690  0.45208685     0.05900
C409        C  0.14288856  0.62441777  0.45715687    -0.31100
O410        O  0.16732361  0.60348840  0.54271795    -0.23000
C411        C  0.15787308  0.61423198  0.56302980    -0.03000
C412        C  0.13852340  0.63074000  0.55790174    -0.17400
H413        H  0.10885594  0.65829854  0.52312967     0.20600
H414        H  0.17157255  0.59565418  0.49199196     0.19000
H415        H  0.15461946  0.61431378  0.44416167     0.18900
H416        H  0.12840665  0.64255218  0.57081536     0.14800
C417        C  0.14100235  0.45439868  0.64989025     0.30200
C418        C  0.15690461  0.46901782  0.63510752    -0.36100
C419        C  0.15426555  0.49494866  0.63761685     0.16200
C420        C  0.13679186  0.50579395  0.65317023     0.22000
C421        C  0.12065159  0.49117127  0.66769229    -0.34200
C422        C  0.12368218  0.46524732  0.66561661     0.16100
O423        O  0.14213924  0.42994517  0.65251584    -0.26300
C424        C  0.12551767  0.42511823  0.67031013     0.05900
C425        C  0.11337469  0.44633588  0.67906244    -0.31100
O426        O  0.13890782  0.53031487  0.65412190    -0.23000
C427        C  0.15809888  0.53521081  0.63914213    -0.03000
C428        C  0.16831918  0.51393899  0.62828779    -0.17400
H429        H  0.17125495  0.46076762  0.62350887     0.20600
H430        H  0.10759410  0.49943701  0.68071891     0.19000
H431        H  0.09990086  0.44773009  0.69405732     0.18900
H432        H  0.18445491  0.51260190  0.61619551     0.14800
C433        C  0.87579689  0.21291876  0.77453035     0.30200
C434        C  0.87641873  0.20799317  0.74882017    -0.36100
C435        C  0.87624081  0.22893878  0.73314503     0.16200
C436        C  0.87516321  0.25310598  0.74208556     0.22000
C437        C  0.87498672  0.25805559  0.76783949    -0.34200
C438        C  0.87550623  0.23708682  0.78354156     0.16100
O439        O  0.87502727  0.19611526  0.79249383    -0.26300
C440        C  0.87461195  0.20968188  0.81330571     0.05900
C441        C  0.87503041  0.23528382  0.80890402    -0.31100
O442        O  0.87397785  0.26979402  0.72399396    -0.23000
C443        C  0.87468476  0.25610462  0.70323672    -0.03000
C444        C  0.87620734  0.23059825  0.70780864    -0.17400
H445        H  0.87671661  0.18913307  0.74153593     0.20600
H446        H  0.87420254  0.27690314  0.77511958     0.19000
H447        H  0.87436020  0.25031689  0.82241618     0.18900
H448        H  0.87651599  0.21547290  0.69438616     0.14800
C449        C  0.84798691  0.13072771  0.03343996     0.30200
C450        C  0.86366155  0.14632157  0.01939654    -0.36100
C451        C  0.86153801  0.14423871  0.99337426     0.16200
C452        C  0.84541844  0.12764467  0.98195078     0.22000
C453        C  0.82980342  0.11201525  0.99599027    -0.34200
C454        C  0.83162232  0.11439511  0.02199088     0.16100
O455        O  0.84556369  0.13088903  0.05793706    -0.26300
C456        C  0.82727808  0.11461082  0.06219411     0.05900
C457        C  0.81792498  0.10374083  0.04053463    -0.31100
O458        O  0.84545722  0.12977255  0.95743549    -0.23000
C459        C  0.86166192  0.14808641  0.95308706    -0.03000
C460        C  0.87226718  0.15779288  0.97474499    -0.17400
H461        H  0.87594952  0.15980065  0.02813815     0.20600
H462        H  0.81648613  0.09955843  0.98724139     0.19000
H463        H  0.80264246  0.09062873  0.03869102     0.18900
H464        H  0.88524303  0.17319973  0.97652024     0.14800
C465        C  0.11169628  0.25830555  0.76139852     0.30200
C466        C  0.11021911  0.24478732  0.78382940    -0.36100
C467        C  0.11243809  0.21872628  0.78167497     0.16200
C468        C  0.11537138  0.20682418  0.75898135     0.22000
C469        C  0.11701383  0.22031482  0.73666152    -0.34200
C470        C  0.11524265  0.24630188  0.73885717     0.16100
O471        O  0.11089498  0.28283924  0.75897524    -0.26300
C472        C  0.11424522  0.28645860  0.73460351     0.05900
C473        C  0.11705707  0.26440694  0.72122369    -0.31100
O474        O  0.11695904  0.18238187  0.76118365    -0.23000
C475        C  0.11537724  0.17851614  0.78563335    -0.03000
C476        C  0.11266495  0.20043252  0.79937387    -0.17400
H477        H  0.10791049  0.25394493  0.80169966     0.20600
H478        H  0.11983594  0.21119437  0.71884667     0.19000
H479        H  0.12024725  0.26210291  0.70140180     0.18900
H480        H  0.11101013  0.20251281  0.81940654     0.14800
C481        C  0.96938324  0.12882821  0.85896446     0.30200
C482        C  0.98395475  0.11317953  0.84382751    -0.36100
C483        C  0.00988778  0.11526061  0.84684586     0.16200
C484        C  0.02074712  0.13127190  0.86392540     0.22000
C485        C  0.00616809  0.14680889  0.87915040    -0.34200
C486        C  0.98026387  0.14509913  0.87577635     0.16100
O487        O  0.94489341  0.13121654  0.85802342    -0.26300
C488        C  0.94007725  0.14939984  0.87427209     0.05900
C489        C  0.96135698  0.15874947  0.88586517    -0.31100
O490        O  0.04532190  0.13142912  0.86244693    -0.23000
C491        C  0.05025330  0.11548895  0.84404534    -0.03000
C492        C  0.02894280  0.10480191  0.83369322    -0.17400
H493        H  0.97569021  0.10099382  0.82995783     0.20600
H494        H  0.01447969  0.16006184  0.89197114     0.19000
H495        H  0.96272111  0.17384830  0.89925255     0.18900
H496        H  0.02766505  0.09207389  0.81802575     0.14800
C497        C  0.13989260  0.95609648  0.85982159     0.30200
C498        C  0.12414784  0.97095112  0.84508077    -0.36100
C499        C  0.12797689  0.99680424  0.84668441     0.16200
C500        C  0.14578285  0.00738217  0.86206961     0.22000
C501        C  0.16154198  0.99252938  0.87681581    -0.34200
C502        C  0.15796021  0.96664637  0.87492187     0.16100
O503        O  0.14065735  0.93148199  0.85993057    -0.26300
C504        C  0.15956305  0.92618866  0.87515800     0.05900
C505        C  0.17098954  0.94733162  0.88507526    -0.31100
O506        O  0.14670379  0.03190135  0.85997591    -0.23000
C507        C  0.12941321  0.03705103  0.84288198    -0.03000
C508        C  0.11721283  0.01594740  0.83390598    -0.17400
H509        H  0.11040559  0.96287422  0.83262760     0.20600
H510        H  0.17607354  0.00055697  0.88837491     0.19000
H511        H  0.18712146  0.94830667  0.89723444     0.18900
H512        H  0.10291084  0.01486124  0.81964946     0.14800
C513        C  0.87276224  0.70538847  0.25766546     0.30200
C514        C  0.87363405  0.71838349  0.23496233    -0.36100
C515        C  0.87208836  0.74445548  0.23663309     0.16200
C516        C  0.87034632  0.75693958  0.25912865     0.22000
C517        C  0.86931230  0.74392660  0.28184978    -0.34200
C518        C  0.87037341  0.71779820  0.28014329     0.16100
O519        O  0.87311496  0.68093692  0.26034283    -0.26300
C520        C  0.87062603  0.67758358  0.28481512     0.05900
C521        C  0.86879466  0.69985154  0.29810807    -0.31100
O522        O  0.86907077  0.78136438  0.25628458    -0.23000
C523        C  0.86966498  0.78450166  0.23164846    -0.03000
C524        C  0.87143143  0.76220047  0.21846195    -0.17400
H525        H  0.87497229  0.70880495  0.21721309     0.20600
H526        H  0.86739327  0.75348061  0.29955861     0.19000
H527        H  0.86642310  0.70239350  0.31801567     0.18900
H528        H  0.87211050  0.75950724  0.19844290     0.14800
C529        C  0.85596282  0.96254024  0.16646167     0.30200
C530        C  0.86071553  0.98799192  0.17042869    -0.36100
C531        C  0.84643989  0.00464777  0.15616991     0.16200
C532        C  0.82854377  0.99681862  0.13932284     0.22000
C533        C  0.82418560  0.97134026  0.13493677    -0.34200
C534        C  0.83861775  0.95466966  0.14906317     0.16100
O535        O  0.86577621  0.94386337  0.17911180    -0.26300
C536        C  0.85485643  0.92373949  0.16945121     0.05900
C537        C  0.83790619  0.92929114  0.15056288    -0.31100
O538        O  0.81585656  0.01558495  0.12968345    -0.23000
C539        C  0.82599406  0.03568080  0.14025648    -0.03000
C540        C  0.84523408  0.03002567  0.15674869    -0.17400
H541        H  0.87398773  0.99436856  0.18428415     0.20600
H542        H  0.80995067  0.96497400  0.12206600     0.19000
H543        H  0.82585747  0.91659112  0.14043090     0.18900
H544        H  0.85579233  0.04268217  0.16847265     0.14800
C545        C  0.10993769  0.73108385  0.23357980     0.30200
C546        C  0.11020488  0.70859788  0.24695530    -0.36100
C547        C  0.11070600  0.71079875  0.27301853     0.16200
C548        C  0.11049934  0.73354316  0.28517778     0.22000
C549        C  0.11048944  0.75608005  0.27177779    -0.34200
C550        C  0.11040368  0.75387582  0.24565155     0.16100
O551        O  0.11012312  0.73331989  0.20908067    -0.26300
C552        C  0.11105247  0.75785147  0.20535773     0.05900
C553        C  0.11129883  0.77160209  0.22742412    -0.31100
O554        O  0.11090297  0.73112894  0.30970205    -0.23000
C555        C  0.11166681  0.70652823  0.31320114    -0.03000
C556        C  0.11172361  0.69297795  0.29105530    -0.17400
H557        H  0.11035128  0.69063520  0.23767600     0.20600
H558        H  0.11084148  0.77404144  0.28105361     0.19000
H559        H  0.11223901  0.79167223  0.22965962     0.18900
H560        H  0.11238765  0.67291538  0.28864756     0.14800
C561        C  0.13907944  0.83666058  0.03423615     0.30200
C562        C  0.15378561  0.85245537  0.01940930    -0.36100
C563        C  0.15151494  0.84930396  0.99350560     0.16200
C564        C  0.13542947  0.83217099  0.98283133     0.22000
C565        C  0.12052434  0.81655017  0.99766348    -0.34200
C566        C  0.12321615  0.81931037  0.02358251     0.16100
O567        O  0.13993905  0.83487806  0.05879326    -0.26300
C568        C  0.12461174  0.81600486  0.06393645     0.05900
C569        C  0.11363309  0.80566807  0.04275977    -0.31100
O570        O  0.13764596  0.83112195  0.95830644    -0.23000
C571        C  0.15554007  0.84761223  0.95324165    -0.03000
C572        C  0.16478416  0.85951998  0.97441137    -0.17400
H573        H  0.16700244  0.86547267  0.02752781     0.20600
H574        H  0.10855232  0.80237240  0.98955920     0.19000
H575        H  0.10116736  0.78977586  0.04162056     0.18900
H576        H  0.17987112  0.87294457  0.97562433     0.14800
C577        C  0.97332102  0.84658128  0.16888016     0.30200
C578        C  0.99877759  0.85057096  0.17367212    -0.36100
C579        C  0.01550905  0.83671648  0.15903747     0.16200
C580        C  0.00775901  0.81988629  0.14108604     0.22000
C581        C  0.98230856  0.81635263  0.13587319    -0.34200
C582        C  0.96557482  0.83036535  0.15037089     0.16100
O583        O  0.95449043  0.85601397  0.18165866    -0.26300
C584        C  0.93441077  0.84594846  0.17099063     0.05900
C585        C  0.94016834  0.83001368  0.15128730    -0.31100
O586        O  0.02652239  0.80735390  0.13116892    -0.23000
C587        C  0.04656202  0.81658813  0.14264136    -0.03000
C588        C  0.04084724  0.83501992  0.16003474    -0.17400
H589        H  0.00508406  0.86294774  0.18836975     0.20600
H590        H  0.97597002  0.80297176  0.12209865     0.19000
H591        H  0.92753148  0.81875031  0.14021549     0.18900
H592        H  0.05343368  0.84474525  0.17253138     0.14800
C593        C  0.22496571  0.71062691  0.39132881     0.30200
C594        C  0.25075024  0.70615548  0.39170846    -0.36100
C595        C  0.26604006  0.72738977  0.39200307     0.16200
C596        C  0.25665370  0.75140407  0.39157802     0.22000
C597        C  0.23084049  0.75588325  0.39173271    -0.34200
C598        C  0.21553286  0.73462559  0.39177425     0.16100
O599        O  0.20730186  0.69353682  0.38994481    -0.26300
C600        C  0.18628427  0.70674685  0.38989223     0.05900
C601        C  0.19022417  0.73239180  0.39116972    -0.31100
O602        O  0.27439940  0.76844891  0.39038151    -0.23000
C603        C  0.29537587  0.75514202  0.39043954    -0.03000
C604        C  0.29132905  0.72952978  0.39159975    -0.17400
H605        H  0.25836283  0.68743358  0.39135124     0.20600
H606        H  0.22323074  0.77460591  0.39139313     0.19000
H607        H  0.17646134  0.74719481  0.39083449     0.18900
H608        H  0.30502991  0.71466843  0.39125944     0.14800
C609        C  0.71367411  0.85983892  0.25426193     0.30200
C610        C  0.72698644  0.85807439  0.23178299    -0.36100
C611        C  0.75306772  0.85911514  0.23382381     0.16200
C612        C  0.76519899  0.86213844  0.25638204     0.22000
C613        C  0.75189164  0.86371430  0.27887960    -0.34200
C614        C  0.72583008  0.86220915  0.27688605     0.16100
O615        O  0.68922037  0.85871286  0.25675519    -0.26300
C616        C  0.68570433  0.86001063  0.28130043     0.05900
C617        C  0.70779249  0.86213018  0.29479393    -0.31100
O618        O  0.78968811  0.86248586  0.25396519    -0.23000
C619        C  0.79329455  0.85937065  0.22959083    -0.03000
C620        C  0.77119245  0.85709913  0.21612010    -0.17400
H621        H  0.71767229  0.85567570  0.21399829     0.20600
H622        H  0.76122621  0.86557730  0.29671663     0.19000
H623        H  0.71016075  0.86337381  0.31482985     0.18900
H624        H  0.76886770  0.85424797  0.19624190     0.14800
C625        C  0.51594355  0.83183838  0.36144959     0.30200
C626        C  0.50143555  0.81668495  0.37708496    -0.36100
C627        C  0.47550202  0.81894249  0.37436568     0.16200
C628        C  0.46454456  0.83531426  0.35773815     0.22000
C629        C  0.47905810  0.85055576  0.34218092    -0.34200
C630        C  0.50500253  0.84796793  0.34457708     0.16100
O631        O  0.54047928  0.83138399  0.35955397    -0.26300
C632        C  0.54529649  0.84727003  0.34110703     0.05900
C633        C  0.52395417  0.85816792  0.33109587    -0.31100
O634        O  0.44000627  0.83331178  0.35727840    -0.23000
C635        C  0.43523569  0.81529131  0.37366250    -0.03000
C636        C  0.45658794  0.80569102  0.38489633    -0.17400
H637        H  0.50978524  0.80335357  0.38976949     0.20600
H638        H  0.47070882  0.86283611  0.32847700     0.19000
H639        H  0.52258142  0.87101169  0.31556177     0.18900
H640        H  0.45799201  0.79054028  0.39818958     0.14800
C641        C  0.22197516  0.86270931  0.77494346     0.30200
C642        C  0.21737402  0.86462157  0.74922687    -0.36100
C643        C  0.23851418  0.86503953  0.73378847     0.16200
C644        C  0.26255413  0.86328377  0.74295267     0.22000
C645        C  0.26718322  0.86180029  0.76871541    -0.34200
C646        C  0.24603361  0.86174385  0.78418606     0.16100
O647        O  0.20495415  0.86149925  0.79270410    -0.26300
C648        C  0.21828258  0.86012382  0.81363062     0.05900
C649        C  0.24393739  0.86028735  0.80948413    -0.31100
O650        O  0.27943952  0.86246698  0.72502685    -0.23000
C651        C  0.26603546  0.86409327  0.70414633    -0.03000
C652        C  0.24049665  0.86592513  0.70847498    -0.17400
H653        H  0.19860561  0.86543639  0.74175166     0.20600
H654        H  0.28593531  0.86045685  0.77615741     0.19000
H655        H  0.25882076  0.85906289  0.82311799     0.18900
H656        H  0.22553510  0.86668724  0.69489306     0.14800
C657        C  0.26175313  0.74745741  0.62950512     0.30200
C658        C  0.26682032  0.72177377  0.62815049    -0.36100
C659        C  0.24595369  0.70592662  0.62788303     0.16200
C660        C  0.22176231  0.71471307  0.62932994     0.22000
C661        C  0.21667883  0.74041924  0.63035775    -0.34200
C662        C  0.23754128  0.75628829  0.63017867     0.16100
O663        O  0.27844392  0.76557063  0.63015797    -0.26300
C664        C  0.26475635  0.78629512  0.63085429     0.05900
C665        C  0.23917901  0.78168151  0.63082409    -0.31100
O666        O  0.20513682  0.69653069  0.62985749    -0.23000
C667        C  0.21883473  0.67584171  0.62836281    -0.03000
C668        C  0.24434787  0.68054856  0.62693704    -0.17400
H669        H  0.28571954  0.71464397  0.62742077     0.20600
H670        H  0.19778609  0.74754067  0.63131263     0.19000
H671        H  0.22406056  0.79508106  0.63155084     0.18900
H672        H  0.25949434  0.66718804  0.62609677     0.14800
C673        C  0.35823284  0.82111430  0.49128232     0.30200
C674        C  0.36258896  0.81738842  0.51684372    -0.36100
C675        C  0.34720088  0.83088569  0.53318974     0.16200
C676        C  0.32872085  0.84686488  0.52496561     0.22000
C677        C  0.32482286  0.85110807  0.49941802    -0.34200
C678        C  0.34029862  0.83771907  0.48307845     0.16100
O679        O  0.36864088  0.80857105  0.47280764    -0.26300
C680        C  0.35747258  0.81752987  0.45251162     0.05900
C681        C  0.33988497  0.83590899  0.45774454    -0.31100
O682        O  0.31520371  0.85598125  0.54342441    -0.23000
C683        C  0.32535386  0.84594805  0.56375577    -0.03000
C684        C  0.34542436  0.83030088  0.55853685    -0.17400
H685        H  0.37630014  0.80413091  0.52351026     0.20600
H686        H  0.31011626  0.86324564  0.49273466     0.19000
H687        H  0.32738024  0.84523033  0.44488993     0.18900
H688        H  0.35637302  0.81928511  0.57146354     0.14800
C689        C  0.26972092  0.09890315  0.75872617     0.30200
C690        C  0.25681752  0.10088970  0.78141972    -0.36100
C691        C  0.23070692  0.10021748  0.77979532     0.16200
C692        C  0.21819228  0.09725072  0.75743587     0.22000
C693        C  0.23108730  0.09530893  0.73475077    -0.34200
C694        C  0.25716915  0.09654681  0.73631456     0.16100
O695        O  0.29410234  0.10020247  0.75577898    -0.26300
C696        C  0.29715412  0.09901546  0.73116897     0.05900
C697        C  0.27484976  0.09679847  0.71807370    -0.31100
O698        O  0.19376725  0.09768946  0.76016430    -0.23000
C699        C  0.19059181  0.10128875  0.78451959    -0.03000
C700        C  0.21289767  0.10300180  0.79771172    -0.17400
H701        H  0.26644483  0.10343252  0.79901760     0.20600
H702        H  0.22143095  0.09362787  0.71706713     0.19000
H703        H  0.27209925  0.09583739  0.69807138     0.18900
H704        H  0.21555569  0.10611592  0.81750904     0.14800
C705        C  0.34488875  0.00743580  0.64833356     0.30200
C706        C  0.32922022  0.99260617  0.63341602    -0.36100
C707        C  0.33141698  0.96669655  0.63662444     0.16200
C708        C  0.34827215  0.95605263  0.65297764     0.22000
C709        C  0.36415252  0.97086415  0.66766052    -0.34200
C710        C  0.36157375  0.99677147  0.66484868     0.16100
O711        O  0.34407166  0.03199461  0.65031126    -0.26300
C712        C  0.36029140  0.03709239  0.66845593     0.05900
C713        C  0.37181232  0.01590904  0.67809381    -0.31100
O714        O  0.34585534  0.93157951  0.65440228    -0.23000
C715        C  0.32708068  0.92648967  0.63892306    -0.03000
C716        C  0.31742635  0.94760432  0.62728440    -0.17400
H717        H  0.31535522  0.00072596  0.62114833     0.20600
H718        H  0.37670943  0.96277921  0.68128452     0.19000
H719        H  0.38481629  0.01471056  0.69353329     0.18900
H720        H  0.30168295  0.94879993  0.61464899     0.14800
C721        C  0.74332589  0.25537883  0.38641069     0.30200
C722        C  0.72063526  0.24229142  0.38624283    -0.36100
C723        C  0.72242926  0.21618235  0.38552704     0.16200
C724        C  0.74498827  0.20371031  0.38544679     0.22000
C725        C  0.76772560  0.21681839  0.38536823    -0.34200
C726        C  0.76592107  0.24298524  0.38565980     0.16100
O727        O  0.74594737  0.27986799  0.38643683    -0.26300
C728        C  0.77053381  0.28325272  0.38536941     0.05900
C729        C  0.78391726  0.26097580  0.38479519    -0.31100
O730        O  0.74219729  0.17920870  0.38488267    -0.23000
C731        C  0.71753188  0.17602585  0.38428243    -0.03000
C732        C  0.70432648  0.19837177  0.38452898    -0.17400
H733        H  0.70281112  0.25181618  0.38633313     0.20600
H734        H  0.78554629  0.20730214  0.38480876     0.19000
H735        H  0.80394378  0.25845704  0.38370068     0.18900
H736        H  0.68429518  0.20105429  0.38409668     0.14800
C737        C  0.74105103  0.09707092  0.28115225     0.30200
C738        C  0.76349939  0.09712147  0.26770084    -0.36100
C739        C  0.76120155  0.09787083  0.24165078     0.16200
C740        C  0.73839645  0.09802515  0.22960005     0.22000
C741        C  0.71592739  0.09809816  0.24306326    -0.34200
C742        C  0.71823276  0.09784283  0.26914541     0.16100
O743        O  0.73886727  0.09753144  0.30565270    -0.26300
C744        C  0.71435925  0.09894804  0.30937569     0.05900
C745        C  0.70057502  0.09920266  0.28736342    -0.31100
O746        O  0.74067625  0.09897314  0.20510292    -0.23000
C747        C  0.76524630  0.09975032  0.20148973    -0.03000
C748        C  0.77893643  0.09920101  0.22353983    -0.17400
H749        H  0.78149566  0.09714400  0.27691468     0.20600
H750        H  0.69793916  0.09884576  0.23386519     0.19000
H751        H  0.68052906  0.10062022  0.28515341     0.18900
H752        H  0.79901403  0.09979813  0.22584153     0.14800
C753        C  0.62335969  0.96437129  0.34362735     0.30200
C754        C  0.61875151  0.98988876  0.33974841    -0.36100
C755        C  0.63274940  0.00647229  0.35448232     0.16200
C756        C  0.65024944  0.99847754  0.37164666     0.22000
C757        C  0.65445939  0.97299287  0.37589762    -0.34200
C758        C  0.64031894  0.95643708  0.36134855     0.16100
O759        O  0.61369553  0.94567461  0.33077356    -0.26300
C760        C  0.62435917  0.92552605  0.34066167     0.05900
C761        C  0.64096515  0.93108804  0.35984810    -0.31100
O762        O  0.66282495  0.01709358  0.38173090    -0.23000
C763        C  0.65303686  0.03732382  0.37118407    -0.03000
C764        C  0.63410260  0.03188528  0.35420848    -0.17400
H765        H  0.60577234  0.99636395  0.32567617     0.20600
H766        H  0.66838865  0.96653047  0.38903864     0.19000
H767        H  0.65269389  0.91837323  0.37029975     0.18900
H768        H  0.62394402  0.04468306  0.34231807     0.14800
C769        C  0.71869340  0.22949592  0.62598930     0.30200
C770        C  0.73188764  0.25214104  0.62581660    -0.36100
C771        C  0.75798149  0.25023337  0.62688746     0.16200
C772        C  0.77026763  0.22758266  0.62756379     0.22000
C773        C  0.75706218  0.20493022  0.62793617    -0.34200
C774        C  0.73094246  0.20685422  0.62733243     0.16100
O775        O  0.69421208  0.22697430  0.62580371    -0.26300
C776        C  0.69070097  0.20242881  0.62734812     0.05900
C777        C  0.71287992  0.18894356  0.62841004    -0.31100
O778        O  0.79474253  0.23017196  0.62837580    -0.23000
C779        C  0.79816163  0.25479136  0.62856806    -0.03000
C780        C  0.77595647  0.26823191  0.62777272    -0.17400
H781        H  0.72244814  0.27000145  0.62525919     0.20600
H782        H  0.76648616  0.18708292  0.62896882     0.19000
H783        H  0.71529371  0.16893575  0.62996022     0.18900
H784        H  0.77347365  0.28829234  0.62772948     0.14800
C785        C  0.47519865  0.11637826  0.66742410     0.30200
C786        C  0.50056044  0.11097647  0.67106031    -0.36100
C787        C  0.51745177  0.12530931  0.65715861     0.16200
C788        C  0.50993792  0.14388389  0.64096142     0.22000
C789        C  0.48451124  0.14895093  0.63693316    -0.34200
C790        C  0.46758659  0.13443646  0.65069072     0.16100
O791        O  0.45638628  0.10633011  0.67966171    -0.26300
C792        C  0.43640497  0.11780686  0.67041399     0.05900
C793        C  0.44218904  0.13540137  0.65221243    -0.31100
O794        O  0.52897092  0.15632843  0.63148749    -0.23000
C795        C  0.54890873  0.14536408  0.64152469    -0.03000
C796        C  0.54286354  0.12581932  0.65748498    -0.17400
H797        H  0.50671633  0.09707176  0.68435712     0.20600
H798        H  0.47838155  0.16366138  0.62451981     0.19000
H799        H  0.42962542  0.14785554  0.64243997     0.18900
H800        H  0.55533535  0.11454458  0.66869917     0.14800
C801        C  0.65212519  0.11408038  0.48857669     0.30200
C802        C  0.65563109  0.10836590  0.51391296    -0.36100
C803        C  0.64219191  0.12303590  0.53096235     0.16200
C804        C  0.62652195  0.14211832  0.52356871     0.22000
C805        C  0.62257896  0.14744979  0.49823158    -0.34200
C806        C  0.63587842  0.13267813  0.48119042     0.16100
O807        O  0.66426654  0.10409605  0.46961892    -0.26300
C808        C  0.65542232  0.11621488  0.44981989     0.05900
C809        C  0.63755955  0.13407316  0.45586290    -0.31100
O810        O  0.61752464  0.15485723  0.54261043    -0.23000
C811        C  0.62729044  0.14362528  0.56249162    -0.03000
C812        C  0.64266271  0.12357665  0.55640129    -0.17400
H813        H  0.66859848  0.09408765  0.51993523     0.20600
H814        H  0.61065655  0.16262892  0.49225350     0.19000
H815        H  0.62822882  0.14707983  0.44353004     0.18900
H816        H  0.65363997  0.11202867  0.56883197     0.14800
C817        C  0.37185136  0.72726699  0.28523581     0.30200
C818        C  0.37270632  0.70478152  0.27177229    -0.36100
C819        C  0.37227777  0.70700220  0.24568151     0.16200
C820        C  0.37150742  0.72978579  0.23365531     0.22000
C821        C  0.37042019  0.75223830  0.24710126    -0.34200
C822        C  0.37043022  0.74999452  0.27316771     0.16100
O823        O  0.37167745  0.72960547  0.30976488    -0.26300
C824        C  0.36984053  0.75412808  0.31339087     0.05900
C825        C  0.36888356  0.76771198  0.29130467    -0.31100
O826        O  0.37103888  0.72750027  0.20915839    -0.23000
C827        C  0.37117234  0.70293637  0.20545771    -0.03000
C828        C  0.37188877  0.68923366  0.22747899    -0.17400
H829        H  0.37332391  0.68681409  0.28098749     0.20600
H830        H  0.36929794  0.77018236  0.23788415     0.19000
H831        H  0.36730847  0.78773170  0.28899795     0.18900
H832        H  0.37188929  0.66914398  0.22970103     0.14800
C833        C  0.26705834  0.73151717  0.12943126     0.30200
C834        C  0.25379704  0.75413231  0.12862545    -0.36100
C835        C  0.22766948  0.75218898  0.12966935     0.16200
C836        C  0.21542673  0.72954017  0.13102329     0.22000
C837        C  0.22868785  0.70696810  0.13216536    -0.34200
C838        C  0.25479740  0.70893223  0.13145521     0.16100
O839        O  0.29156931  0.72893296  0.12888161    -0.26300
C840        C  0.29502814  0.70439079  0.13083157     0.05900
C841        C  0.27281702  0.69103543  0.13259472    -0.31100
O842        O  0.19092453  0.73204236  0.13148487    -0.23000
C843        C  0.18740538  0.75662936  0.13073422    -0.03000
C844        C  0.20959827  0.77012040  0.12972076    -0.17400
H845        H  0.26319018  0.77198591  0.12741349     0.20600
H846        H  0.21930445  0.68912821  0.13362770     0.19000
H847        H  0.27035137  0.67106034  0.13445682     0.18900
H848        H  0.21200985  0.79017682  0.12901666     0.14800
C849        C  0.72198483  0.24678096  0.12406214     0.30200
C850        C  0.71717249  0.22103300  0.12399881    -0.36100
C851        C  0.73822610  0.20546501  0.12392525     0.16200
C852        C  0.76235216  0.21457919  0.12423797     0.22000
C853        C  0.76715737  0.24031561  0.12376601    -0.34200
C854        C  0.74611293  0.25587434  0.12352369     0.16100
O855        O  0.70516514  0.26472348  0.12530192    -0.26300
C856        C  0.71872345  0.28554084  0.12518834     0.05900
C857        C  0.74428173  0.28119607  0.12391205    -0.31100
O858        O  0.77920561  0.19667425  0.12551502    -0.23000
C859        C  0.76568933  0.17583342  0.12562975    -0.03000
C860        C  0.74010333  0.18013834  0.12452238    -0.17400
H861        H  0.69835592  0.21366031  0.12442488     0.20600
H862        H  0.78597408  0.24769740  0.12401037     0.19000
H863        H  0.75930467  0.29472562  0.12417677     0.18900
H864        H  0.72510608  0.16658423  0.12488110     0.14800
C865        C  0.74585848  0.36189413  0.23052393     0.30200
C866        C  0.76841566  0.36252823  0.24384570    -0.36100
C867        C  0.76635312  0.36161703  0.26991948     0.16200
C868        C  0.74364707  0.36064443  0.28208006     0.22000
C869        C  0.72109408  0.35982729  0.26875496    -0.34200
C870        C  0.72318067  0.36027602  0.24266636     0.16100
O871        O  0.74344676  0.36197685  0.20602783    -0.26300
C872        C  0.71893401  0.36010476  0.20244181     0.05900
C873        C  0.70538599  0.35888551  0.22455365    -0.31100
O874        O  0.74610838  0.35969318  0.30654995    -0.23000
C875        C  0.77070323  0.35970404  0.31006682    -0.03000
C876        C  0.78425076  0.36083304  0.28796429    -0.17400
H877        H  0.78632357  0.36326413  0.23452363     0.20600
H878        H  0.70321151  0.35851975  0.27806426     0.19000
H879        H  0.68538188  0.35716134  0.22689138     0.18900
H880        H  0.80432327  0.36088213  0.28558504     0.14800
C881        C  0.76720286  0.60085482  0.25712042     0.30200
C882        C  0.75386259  0.60118328  0.23457349    -0.36100
C883        C  0.72776860  0.60079230  0.23667234     0.16200
C884        C  0.71562385  0.59975932  0.25937624     0.22000
C885        C  0.72896206  0.59968528  0.28193725    -0.34200
C886        C  0.75505495  0.60045832  0.27984491     0.16100
O887        O  0.79169789  0.60145765  0.25952773    -0.26300
C888        C  0.79526995  0.60174825  0.28410368     0.05900
C889        C  0.77315567  0.60125987  0.29769662    -0.31100
O890        O  0.69111781  0.59959366  0.25695453    -0.23000
C891        C  0.68753450  0.60082086  0.23240217    -0.03000
C892        C  0.70965640  0.60167754  0.21884525    -0.17400
H893        H  0.76317327  0.60196043  0.21666396     0.20600
H894        H  0.71964412  0.59933470  0.29985739     0.19000
H895        H  0.77081132  0.60146549  0.31776733     0.18900
H896        H  0.71200245  0.60290402  0.19881355     0.14800
C897        C  0.61102790  0.70449855  0.25824771     0.30200
C898        C  0.61129404  0.71807087  0.28065492    -0.36100
C899        C  0.61058561  0.74412804  0.27828919     0.16200
C900        C  0.60931473  0.75601800  0.25546210     0.22000
C901        C  0.60931185  0.74244497  0.23304176    -0.34200
C902        C  0.61041195  0.71639562  0.23539674     0.16100
O903        O  0.61183402  0.67999707  0.25608956    -0.26300
C904        C  0.61205026  0.67617684  0.23155324     0.05900
C905        C  0.61131790  0.69812248  0.21772663    -0.31100
O906        O  0.60895233  0.78054312  0.25762709    -0.23000
C907        C  0.61029150  0.78440035  0.28213250    -0.03000
C908        C  0.61140879  0.76243576  0.29591830    -0.17400
H909        H  0.61225678  0.70895647  0.29865924     0.20600
H910        H  0.60878672  0.75156841  0.21502496     0.19000
H911        H  0.61135861  0.70024469  0.19762943     0.18900
H912        H  0.61284030  0.76031714  0.31596602     0.14800
C913        C  0.47375599  0.63939969  0.14224497     0.30200
C914        C  0.49921862  0.64347212  0.13771482    -0.36100
C915        C  0.51585309  0.62906426  0.15187063     0.16200
C916        C  0.50801877  0.61196908  0.16947985     0.22000
C917        C  0.48251980  0.60742201  0.17355995    -0.34200
C918        C  0.46586078  0.62171440  0.15923839     0.16100
O919        O  0.45509567  0.65224648  0.13260589    -0.26300
C920        C  0.43493814  0.64243432  0.14327035     0.05900
C921        C  0.44047356  0.62323241  0.15986946    -0.31100
O922        O  0.52677748  0.60237310  0.18226363    -0.23000
C923        C  0.54686033  0.61322478  0.17243979    -0.03000
C924        C  0.54120177  0.62981675  0.15331684    -0.17400
H925        H  0.50562207  0.65756539  0.12474542     0.20600
H926        H  0.47612019  0.59436699  0.18757621     0.19000
H927        H  0.42775077  0.61292447  0.17170213     0.18900
H928        H  0.55383035  0.64178687  0.14304965     0.14800
C929        C  0.63877032  0.45460113  0.15767535     0.30200
C930        C  0.62366959  0.46898763  0.17348787    -0.36100
C931        C  0.62543448  0.49491267  0.17051275     0.16200
C932        C  0.64067362  0.50593559  0.15289137     0.22000
C933        C  0.65570061  0.49154535  0.13700533    -0.34200
C934        C  0.65428714  0.46563137  0.14030210     0.16100
O935        O  0.64132786  0.43014779  0.15841631    -0.26300
C936        C  0.65886046  0.42549765  0.14147671     0.05900
C937        C  0.66763449  0.44684402  0.12961518    -0.31100
O938        O  0.64058980  0.53048756  0.15440811    -0.23000
C939        C  0.62526599  0.53521298  0.17335353    -0.03000
C940        C  0.61522364  0.51381721  0.18405352    -0.17400
H941        H  0.61210048  0.46059028  0.18775894     0.20600
H942        H  0.66834600  0.49999773  0.12371173     0.19000
H943        H  0.68221563  0.44832899  0.11570643     0.18900
H944        H  0.60303222  0.51240004  0.20010348     0.14800
C945        C  0.26014404  0.36259469  0.77708884     0.30200
C946        C  0.23438565  0.36271509  0.78183202    -0.36100
C947        C  0.21881986  0.36400115  0.76081234     0.16200
C948        C  0.22793864  0.36469493  0.73672243     0.22000
C949        C  0.25373749  0.36507637  0.73199127    -0.34200
C950        C  0.26932178  0.36414465  0.75305934     0.16100
O951        O  0.27800543  0.36069572  0.79393674    -0.26300
C952        C  0.29892623  0.36139999  0.78058403     0.05900
C953        C  0.29469721  0.36366177  0.75504605    -0.31100
O954        O  0.20997527  0.36419415  0.71983511    -0.23000
C955        C  0.18910078  0.36360342  0.73331998    -0.03000
C956        C  0.19346620  0.36364373  0.75891225    -0.17400
H957        H  0.22699051  0.36151069  0.80059320     0.20600
H958        H  0.26113596  0.36564393  0.71319973     0.19000
H959        H  0.30832172  0.36422127  0.74013534     0.18900
H960        H  0.17993898  0.36248691  0.77387514     0.14800
C961        C  0.37458783  0.24662894  0.77738240     0.30200
C962        C  0.37474724  0.22076548  0.78165513    -0.36100
C963        C  0.37362571  0.20556672  0.76031627     0.16200
C964        C  0.37209107  0.21512631  0.73643661     0.22000
C965        C  0.37239173  0.24096505  0.73214671    -0.34200
C966        C  0.37387975  0.25615209  0.75345103     0.16100
O967        O  0.37454312  0.26430038  0.79459403    -0.26300
C968        C  0.37423899  0.28539191  0.78146648     0.05900
C969        C  0.37397778  0.28145786  0.75580013    -0.31100
O970        O  0.37025062  0.19752121  0.71927634    -0.23000
C971        C  0.37096398  0.17640335  0.73231642    -0.03000
C972        C  0.37316685  0.18025454  0.75791910    -0.17400
H973        H  0.37540810  0.21303835  0.80030367     0.20600
H974        H  0.37129162  0.24869352  0.71351937     0.19000
H975        H  0.37304937  0.29525751  0.74107777     0.18900
H976        H  0.37386486  0.16640699  0.77260928     0.14800
C977        C  0.24170077  0.75556486  0.88922906     0.30200
C978        C  0.26416077  0.74211568  0.88938696    -0.36100
C979        C  0.26189033  0.71606003  0.88877976     0.16200
C980        C  0.23909035  0.70401890  0.88845065     0.22000
C981        C  0.21660398  0.71748739  0.88799600    -0.34200
C982        C  0.21888470  0.74358634  0.88821927     0.16100
O983        O  0.23951287  0.78006338  0.88938790    -0.26300
C984        C  0.21500197  0.78386146  0.88816217     0.05900
C985        C  0.20120391  0.76186305  0.88728952    -0.31100
O986        O  0.24139670  0.67950455  0.88804457    -0.23000
C987        C  0.26598060  0.67586613  0.88780389    -0.03000
C988        C  0.27966193  0.69792005  0.88813991    -0.17400
H989        H  0.28214727  0.75133204  0.88972285     0.20600
H990        H  0.19862626  0.70827528  0.88728431     0.19000
H991        H  0.18113811  0.75970498  0.88611497     0.18900
H992        H  0.29974710  0.70020199  0.88793564     0.14800
C993        C  0.26340433  0.59925822  0.77346263     0.30200
C994        C  0.26784580  0.59596043  0.74784101    -0.36100
C995        C  0.24679297  0.59730958  0.73227439     0.16200
C996        C  0.22308709  0.60200491  0.74125031     0.22000
C997        C  0.21861162  0.60504475  0.76685280    -0.34200
C998        C  0.23956744  0.60326345  0.78243168     0.16100
O999        O  0.28029579  0.59875236  0.79142338    -0.26300
C1000       C  0.26696789  0.60200315  0.81213322     0.05900
C1001       C  0.24156316  0.60489841  0.80767783    -0.31100
O1002       O  0.20629145  0.60351587  0.72331865    -0.23000
C1003       C  0.21934154  0.59947014  0.70259013    -0.03000
C1004       C  0.24461481  0.59533817  0.70701367    -0.17400
H1005       H  0.28639350  0.59261361  0.74055707     0.20600
H1006       H  0.20009001  0.60858534  0.77411535     0.19000
H1007       H  0.22679547  0.60804028  0.82110999     0.18900
H1008       H  0.25931483  0.59215519  0.69351996     0.14800
C1009       C  0.34387965  0.62961864  0.98345603     0.30200
C1010       C  0.35874841  0.64523869  0.99831769    -0.36100
C1011       C  0.35642741  0.64206697  0.02417232     0.16200
C1012       C  0.34083339  0.62448513  0.03475375     0.22000
C1013       C  0.32598038  0.60880060  0.01986727    -0.34200
C1014       C  0.32800527  0.61224988  0.99398062     0.16100
O1015       O  0.34196884  0.63050848  0.95894442    -0.26300
C1016       C  0.32449200  0.61365740  0.95368784     0.05900
C1017       C  0.31511436  0.60170174  0.97473870    -0.31100
O1018       O  0.34063491  0.62570452  0.05936364    -0.23000
C1019       C  0.35617767  0.64441341  0.06454045    -0.03000
C1020       C  0.36656467  0.65524101  0.04337652    -0.17400
H1021       H  0.37065091  0.65946065  0.99029864     0.20600
H1022       H  0.31310773  0.59546964  0.02791625     0.19000
H1023       H  0.30043806  0.58783349  0.97573644     0.18900
H1024       H  0.37905033  0.67110586  0.04229845     0.14800
C1025       C  0.34744560  0.50608401  0.86067199     0.30200
C1026       C  0.36366203  0.49160001  0.84603233    -0.36100
C1027       C  0.36032392  0.46564702  0.84740640     0.16200
C1028       C  0.34261785  0.45465151  0.86255942     0.22000
C1029       C  0.32652934  0.46912260  0.87733008    -0.34200
C1030       C  0.32953236  0.49507919  0.87557434     0.16100
O1031       O  0.34577908  0.53066851  0.86052004    -0.26300
C1032       C  0.32641817  0.53544458  0.87534105     0.05900
C1033       C  0.31566295  0.51402219  0.88531722    -0.31100
O1034       O  0.34181444  0.43016925  0.85992044    -0.23000
C1035       C  0.35907411  0.42542945  0.84269779    -0.03000
C1036       C  0.37118762  0.44678931  0.83423165    -0.17400
H1037       H  0.37718816  0.50001152  0.83360907     0.20600
H1038       H  0.31198144  0.46076243  0.88858092     0.19000
H1039       H  0.29931239  0.51259329  0.89710368     0.18900
H1040       H  0.38534972  0.44825001  0.81989617     0.14800
C1041       C  0.71890890  0.23051625  0.88933530     0.30200
C1042       C  0.73274609  0.20827066  0.88978533    -0.36100
C1043       C  0.75879704  0.21098333  0.89016570     0.16200
C1044       C  0.77045055  0.23398619  0.89051065     0.22000
C1045       C  0.75662122  0.25622307  0.88984741    -0.34200
C1046       C  0.73058445  0.25350601  0.88903586     0.16100
O1047       O  0.69435640  0.23237275  0.88849190    -0.26300
C1048       C  0.69029434  0.25685752  0.88733728     0.05900
C1049       C  0.71213605  0.27091492  0.88748993    -0.31100
O1050       O  0.79500930  0.23214519  0.89043871    -0.23000
C1051       C  0.79911742  0.20765693  0.88971766    -0.03000
C1052       C  0.77729622  0.19356753  0.88950358    -0.17400
H1053       H  0.72383817  0.19012977  0.88946323     0.20600
H1054       H  0.76554523  0.27435603  0.88955747     0.19000
H1055       H  0.71408430  0.29101545  0.88660916     0.18900
H1056       H  0.77539068  0.17346178  0.88859840     0.14800
C1057       C  0.61606676  0.20864189  0.74167525     0.30200
C1058       C  0.61537888  0.20444053  0.76753098    -0.36100
C1059       C  0.61498398  0.22586094  0.78264956     0.16200
C1060       C  0.61571982  0.24976028  0.77303053     0.22000
C1061       C  0.61614821  0.25396052  0.74719674    -0.34200
C1062       C  0.61607893  0.23256287  0.73208498     0.16100
O1063       O  0.61658097  0.19138021  0.72406319    -0.26300
C1064       C  0.61651973  0.20446275  0.70294986     0.05900
C1065       C  0.61617209  0.23014615  0.70680856    -0.31100
O1066       O  0.61607949  0.26704636  0.79058604    -0.23000
C1067       C  0.61517750  0.25405888  0.81171911    -0.03000
C1068       C  0.61435392  0.22836197  0.80794044    -0.17400
H1069       H  0.61515029  0.18580003  0.77530921     0.20600
H1070       H  0.61651242  0.27260177  0.73942379     0.19000
H1071       H  0.61632350  0.24486157  0.69297089     0.18900
H1072       H  0.61401908  0.21369956  0.82183015     0.14800
C1073       C  0.62754433  0.32069261  0.98949640     0.30200
C1074       C  0.62339773  0.31664381  0.01502007    -0.36100
C1075       C  0.63785887  0.33107059  0.03141817     0.16200
C1076       C  0.65538911  0.34813678  0.02330334     0.22000
C1077       C  0.65912956  0.35259319  0.99777008    -0.34200
C1078       C  0.64449518  0.33832551  0.98135888     0.16100
O1079       O  0.61762473  0.30783649  0.97096970    -0.26300
C1080       C  0.62809945  0.31759681  0.95069041     0.05900
C1081       C  0.64479877  0.33678273  0.95599451    -0.31100
O1082       O  0.66827867  0.35801399  0.04185147    -0.23000
C1083       C  0.65858999  0.34739810  0.06209704    -0.03000
C1084       C  0.63951302  0.33059857  0.05674649    -0.17400
H1085       H  0.61044493  0.30261687  0.02162628     0.20600
H1086       H  0.67306712  0.36563546  0.99115405     0.19000
H1087       H  0.65655894  0.34699794  0.94313450     0.18900
H1088       H  0.62929186  0.31881029  0.06957779     0.14800
C1089       C  0.51071245  0.31972486  0.87415237     0.30200
C1090       C  0.48519420  0.31601679  0.87886569    -0.36100
C1091       C  0.46865356  0.33083462  0.86496210     0.16200
C1092       C  0.47667893  0.34800242  0.84750395     0.22000
C1093       C  0.50218587  0.35219042  0.84329111    -0.34200
C1094       C  0.51870711  0.33746499  0.85726484     0.16100
O1095       O  0.52931917  0.30650921  0.88344981    -0.26300
C1096       C  0.54948776  0.31613610  0.87259400     0.05900
C1097       C  0.54402375  0.33557019  0.85627820    -0.31100
O1098       O  0.45807958  0.35788762  0.83475815    -0.23000
C1099       C  0.43784734  0.34717237  0.84438066    -0.03000
C1100       C  0.44326134  0.33036730  0.86342164    -0.17400
H1101       H  0.47867008  0.30185408  0.89170568     0.20600
H1102       H  0.50868333  0.36525667  0.82932451     0.19000
H1103       H  0.55675226  0.34589379  0.84446177     0.18900
H1104       H  0.43047767  0.31835052  0.87344317     0.14800
loop_ 
_geom_bond_atom_site_label_1 
_geom_bond_atom_site_label_2 
_geom_bond_distance 
_geom_bond_site_symmetry_2 
_ccdc_geom_bond_type 
O1           Cu9   2.009       .  S
O1           C11   1.277       .  A
O2           Cu9   2.008       .  S
O2           C12   1.277       .  A
O3           Cu9   2.015       .  S
O3           C13   1.278       .  A
O4           Cu9   2.016       .  S
O4           C14   1.278       .  A
O5          Cu10   2.006       .  S
O5           C14   1.277       .  A
O6          Cu10   2.007       .  S
O6           C13   1.277       .  A
O7          Cu10   2.012       .  S
O7           C12   1.278       .  A
O8          Cu10   2.010       .  S
O8           C11   1.278       .  A
Cu9         Cu10   2.376       .  S
C11        C1080   1.468       .  S
C12        C1067   1.468       .  S
C13        C1048   1.468       .  S
C14        C1096   1.469       .  S
O15         Cu23   2.007       .  S
O15          C25   1.277       .  A
O16         Cu23   2.010       .  S
O16          C26   1.278       .  A
O17         Cu23   2.007       .  S
O17          C27   1.277       .  A
O18         Cu23   2.005       .  S
O18          C28   1.277       .  A
O19         Cu24   2.015       .  S
O19          C28   1.277       .  A
O20         Cu24   2.011       .  S
O20          C27   1.277       .  A
O21         Cu24   2.013       .  S
O21          C26   1.277       .  A
O22         Cu24   2.010       .  S
O22          C25   1.278       .  A
Cu23        Cu24   2.377       .  S
C25         C987   1.466       .  S
C26        C1032   1.470       .  S
C27        C1016   1.467       .  S
C28        C1000   1.467       .  S
O29         Cu37   2.012       .  S
O29          C39   1.278       .  A
O30         Cu37   2.012       .  S
O30          C40   1.278       .  A
O31         Cu37   2.017       .  S
O31          C41   1.278       .  A
O32         Cu37   2.015       .  S
O32          C42   1.278       .  A
O33         Cu38   2.010       .  S
O33          C42   1.278       .  A
O34         Cu38   2.009       .  S
O34          C41   1.278       .  A
O35         Cu38   2.011       .  S
O35          C40   1.278       .  A
O36         Cu38   2.011       .  S
O36          C39   1.277       .  A
Cu37        Cu38   2.376       .  S
C39        C1099   1.469       .  S
C40         C952   1.469       .  S
C41         C968   1.470       .  S
C42        C1035   1.470       .  S
O43         Cu51   2.008       .  S
O43          C53   1.277       .  A
O44         Cu51   2.005       .  S
O44          C54   1.276       .  A
O45         Cu51   2.008       .  S
O45          C55   1.278       .  A
O46         Cu51   2.011       .  S
O46          C56   1.278       .  A
O47         Cu52   2.010       .  S
O47          C56   1.277       .  A
O48         Cu52   2.012       .  S
O48          C55   1.277       .  A
O49         Cu52   2.004       .  S
O49          C54   1.277       .  A
O50         Cu52   2.006       .  S
O50          C53   1.277       .  A
Cu51        Cu52   2.377       .  S
C53         C904   1.465       .  S
C54         C939   1.464       .  S
C55         C923   1.468       .  S
C56         C891   1.468       .  S
O57         Cu65   2.012       .  S
O57          C67   1.278       .  A
O58         Cu65   2.013       .  S
O58          C68   1.278       .  A
O59         Cu65   2.003       .  S
O59          C69   1.277       .  A
O60         Cu65   2.004       .  S
O60          C70   1.277       .  A
O61         Cu66   2.008       .  S
O61          C70   1.277       .  A
O62         Cu66   2.011       .  S
O62          C69   1.277       .  A
O63         Cu66   2.007       .  S
O63          C68   1.277       .  A
O64         Cu66   2.004       .  S
O64          C67   1.277       .  A
Cu65        Cu66   2.377       .  S
C67        C1083   1.467       .  S
C68         C872   1.467       .  S
C69         C856   1.465       .  S
C70         C936   1.465       .  S
O71         Cu79   2.012       .  S
O71          C81   1.278       .  A
O72         Cu79   2.015       .  S
O72          C82   1.278       .  A
O73         Cu79   2.008       .  S
O73          C83   1.277       .  A
O74         Cu79   2.011       .  S
O74          C84   1.278       .  A
O75         Cu80   2.015       .  S
O75          C84   1.278       .  A
O76         Cu80   2.015       .  S
O76          C83   1.278       .  A
O77         Cu80   2.004       .  S
O77          C82   1.277       .  A
O78         Cu80   2.004       .  S
O78          C81   1.276       .  A
Cu79        Cu80   2.376       .  S
C81         C827   1.466       .  S
C82        C1019   1.468       .  S
C83         C920   1.469       .  S
C84         C840   1.470       .  S
O85         Cu93   2.006       .  S
O85          C95   1.277       .  A
O86         Cu93   2.005       .  S
O86          C96   1.277       .  A
O87         Cu93   2.006       .  S
O87          C97   1.277       .  A
O88         Cu93   2.011       .  S
O88          C98   1.277       .  A
O89         Cu94   2.016       .  S
O89          C98   1.279       .  A
O90         Cu94   2.016       .  S
O90          C97   1.278       .  A
O91         Cu94   2.018       .  S
O91          C96   1.278       .  A
O92         Cu94   2.016       .  S
O92          C95   1.278       .  A
Cu93        Cu94   2.376       .  S
C95         C811   1.469       .  S
C96        C1064   1.469       .  S
C97         C776   1.468       .  S
C98         C795   1.470       .  S
O99        Cu107   2.011       .  S
O99         C109   1.278       .  A
O100       Cu107   2.013       .  S
O100        C110   1.278       .  A
O101       Cu107   2.008       .  S
O101        C111   1.278       .  A
O102       Cu107   2.011       .  S
O102        C112   1.278       .  A
O103       Cu108   2.011       .  S
O103        C112   1.277       .  A
O104       Cu108   2.007       .  S
O104        C111   1.277       .  A
O105       Cu108   2.015       .  S
O105        C110   1.277       .  A
O106       Cu108   2.010       .  S
O106        C109   1.277       .  A
Cu107      Cu108   2.376       .  S
C109        C763   1.468       .  S
C110        C731   1.470       .  S
C111        C744   1.466       .  S
C112        C808   1.469       .  S
O113       Cu121   2.012       .  S
O113        C123   1.278       .  A
O114       Cu121   2.013       .  S
O114        C124   1.278       .  A
O115       Cu121   2.018       .  S
O115        C125   1.278       .  A
O116       Cu121   2.018       .  S
O116        C126   1.278       .  A
O117       Cu122   2.005       .  S
O117        C126   1.277       .  A
O118       Cu122   2.007       .  S
O118        C125   1.278       .  A
O119       Cu122   2.004       .  S
O119        C124   1.277       .  A
O120       Cu122   2.003       .  S
O120        C123   1.276       .  A
Cu121      Cu122   2.377       .  S
C123        C696   1.464       .  S
C124        C792   1.467       .  S
C125        C712   1.470       .  S
C126        C971   1.469       .  S
O127       Cu135   2.010       .  S
O127        C137   1.278       .  A
O128       Cu135   2.013       .  S
O128        C138   1.277       .  A
O129       Cu135   2.014       .  S
O129        C139   1.278       .  A
O130       Cu135   2.013       .  S
O130        C140   1.277       .  A
O131       Cu136   2.011       .  S
O131        C140   1.278       .  A
O132       Cu136   2.012       .  S
O132        C139   1.278       .  A
O133       Cu136   2.011       .  S
O133        C138   1.278       .  A
O134       Cu136   2.013       .  S
O134        C137   1.278       .  A
Cu135      Cu136   2.376       .  S
C137        C683   1.470       .  S
C138        C651   1.470       .  S
C139        C664   1.470       .  S
C140        C715   1.470       .  S
O141       Cu149   2.006       .  S
O141        C151   1.277       .  A
O142       Cu149   2.005       .  S
O142        C152   1.276       .  A
O143       Cu149   2.012       .  S
O143        C153   1.277       .  A
O144       Cu149   2.014       .  S
O144        C154   1.278       .  A
O145       Cu150   2.006       .  S
O145        C154   1.277       .  A
O146       Cu150   2.008       .  S
O146        C153   1.278       .  A
O147       Cu150   2.012       .  S
O147        C152   1.278       .  A
O148       Cu150   2.011       .  S
O148        C151   1.277       .  A
Cu149      Cu150   2.377       .  S
C151        C632   1.467       .  S
C152        C616   1.465       .  S
C153        C907   1.468       .  S
C154        C760   1.469       .  S
O155       Cu163   2.003       .  S
O155        C165   1.277       .  A
O156       Cu163   2.004       .  S
O156        C166   1.277       .  A
O157       Cu163   2.014       .  S
O157        C167   1.278       .  A
O158       Cu163   2.013       .  S
O158        C168   1.278       .  A
O159       Cu164   2.001       .  S
O159        C168   1.277       .  A
O160       Cu164   2.001       .  S
O160        C167   1.277       .  A
O161       Cu164   2.017       .  S
O161        C166   1.278       .  A
O162       Cu164   2.015       .  S
O162        C165   1.278       .  A
Cu163      Cu164   2.377       .  S
C165        C680   1.468       .  S
C166        C824   1.468       .  S
C167        C603   1.466       .  S
C168        C635   1.466       .  S
O169       Cu177   2.014       .  S
O169        C179   1.278       .  A
O170       Cu177   2.015       .  S
O170        C180   1.278       .  A
O171       Cu177   2.009       .  S
O171        C181   1.277       .  A
O172       Cu177   2.012       .  S
O172        C182   1.278       .  A
O173       Cu178   2.016       .  S
O173        C182   1.278       .  A
O174       Cu178   2.014       .  S
O174        C181   1.278       .  A
O175       Cu178   2.014       .  S
O175        C180   1.278       .  A
O176       Cu178   2.009       .  S
O176        C179   1.278       .  A
Cu177      Cu178   2.376       .  S
C179        C587   1.469       .  S
C180        C843   1.470       .  S
C181        C552   1.469       .  S
C182        C568   1.471       .  S
O183       Cu191   2.011       .  S
O183        C193   1.278       .  A
O184       Cu191   2.012       .  S
O184        C194   1.278       .  A
O185       Cu191   2.010       .  S
O185        C195   1.278       .  A
O186       Cu191   2.010       .  S
O186        C196   1.278       .  A
O187       Cu192   2.013       .  S
O187        C196   1.278       .  A
O188       Cu192   2.008       .  S
O188        C195   1.277       .  A
O189       Cu192   2.007       .  S
O189        C194   1.277       .  A
O190       Cu192   2.007       .  S
O190        C193   1.277       .  A
Cu191      Cu192   2.376       .  S
C193        C536   1.467       .  S
C194        C523   1.467       .  S
C195        C619   1.467       .  S
C196        C584   1.470       .  S
O197       Cu205   2.006       .  S
O197        C207   1.277       .  A
O198       Cu205   2.005       .  S
O198        C208   1.277       .  A
O199       Cu205   2.008       .  S
O199        C209   1.277       .  A
O200       Cu205   2.009       .  S
O200        C210   1.278       .  A
O201       Cu206   2.018       .  S
O201        C210   1.278       .  A
O202       Cu206   2.019       .  S
O202        C209   1.278       .  A
O203       Cu206   2.013       .  S
O203        C208   1.278       .  A
O204       Cu206   2.014       .  S
O204        C207   1.278       .  A
Cu205      Cu206   2.376       .  S
C207        C504   1.469       .  S
C208        C984   1.467       .  S
C209        C648   1.470       .  S
C210        C571   1.471       .  S
O211       Cu219   2.011       .  S
O211        C221   1.278       .  A
O212       Cu219   2.009       .  S
O212        C222   1.278       .  A
O213       Cu219   2.002       .  S
O213        C223   1.277       .  A
O214       Cu219   1.998       .  S
O214        C224   1.276       .  A
O215       Cu220   2.012       .  S
O215        C224   1.278       .  A
O216       Cu220   2.013       .  S
O216        C223   1.278       .  A
O217       Cu220   2.010       .  S
O217        C222   1.277       .  A
O218       Cu220   2.012       .  S
O218        C221   1.277       .  A
Cu219      Cu220   2.377       .  S
C221        C475   1.467       .  S
C222        C507   1.468       .  S
C223        C491   1.467       .  S
C224        C699   1.464       .  S
O225       Cu233   2.011       .  S
O225        C235   1.278       .  A
O226       Cu233   2.011       .  S
O226        C236   1.277       .  A
O227       Cu233   2.005       .  S
O227        C237   1.277       .  A
O228       Cu233   2.007       .  S
O228        C238   1.277       .  A
O229       Cu234   2.011       .  S
O229        C238   1.278       .  A
O230       Cu234   2.013       .  S
O230        C237   1.278       .  A
O231       Cu234   2.007       .  S
O231        C236   1.278       .  A
O232       Cu234   2.007       .  S
O232        C235   1.277       .  A
Cu233      Cu234   2.377       .  S
C235        C456   1.468       .  S
C236        C747   1.467       .  S
C237        C859   1.466       .  S
C238        C539   1.468       .  S
O239       Cu247   2.007       .  S
O239        C249   1.277       .  A
O240       Cu247   2.007       .  S
O240        C250   1.277       .  A
O241       Cu247   2.011       .  S
O241        C251   1.277       .  A
O242       Cu247   2.014       .  S
O242        C252   1.278       .  A
O243       Cu248   2.009       .  S
O243        C252   1.277       .  A
O244       Cu248   2.009       .  S
O244        C251   1.278       .  A
O245       Cu248   2.011       .  S
O245        C250   1.278       .  A
O246       Cu248   2.011       .  S
O246        C249   1.277       .  A
Cu247      Cu248   2.377       .  S
C249       C1051   1.467       .  S
C250        C488   1.467       .  S
C251        C459   1.468       .  S
C252        C440   1.469       .  S
O253       Cu261   2.008       .  S
O253        C263   1.277       .  A
O254       Cu261   2.004       .  S
O254        C264   1.277       .  A
O255       Cu261   2.012       .  S
O255        C265   1.277       .  A
O256       Cu261   2.013       .  S
O256        C266   1.277       .  A
O257       Cu262   2.014       .  S
O257        C266   1.278       .  A
O258       Cu262   2.009       .  S
O258        C265   1.278       .  A
O259       Cu262   2.009       .  S
O259        C264   1.277       .  A
O260       Cu262   2.010       .  S
O260        C263   1.278       .  A
Cu261      Cu262   2.376       .  S
C263       C1003   1.468       .  S
C264        C411   1.466       .  S
C265        C427   1.469       .  S
C266        C667   1.470       .  S
O267       Cu275   2.008       .  S
O267        C277   1.278       .  A
O268       Cu275   2.012       .  S
O268        C278   1.277       .  A
O269       Cu275   2.015       .  S
O269        C279   1.278       .  A
O270       Cu275   2.012       .  S
O270        C280   1.278       .  A
O271       Cu276   2.014       .  S
O271        C280   1.277       .  A
O272       Cu276   2.014       .  S
O272        C279   1.277       .  A
O273       Cu276   2.007       .  S
O273        C278   1.278       .  A
O274       Cu276   2.008       .  S
O274        C277   1.277       .  A
Cu275      Cu276   2.376       .  S
C277        C424   1.467       .  S
C278        C472   1.468       .  S
C279        C955   1.470       .  S
C280        C392   1.470       .  S
O281       Cu289   2.006       .  S
O281        C291   1.277       .  A
O282       Cu289   2.002       .  S
O282        C292   1.276       .  A
O283       Cu289   2.014       .  S
O283        C293   1.278       .  A
O284       Cu289   2.013       .  S
O284        C294   1.278       .  A
O285       Cu290   2.002       .  S
O285        C294   1.276       .  A
O286       Cu290   2.005       .  S
O286        C293   1.277       .  A
O287       Cu290   2.013       .  S
O287        C292   1.278       .  A
O288       Cu290   2.015       .  S
O288        C291   1.278       .  A
Cu289      Cu290   2.377       .  S
C291        C555   1.468       .  S
C292        C408   1.466       .  S
C293        C379   1.467       .  S
C294        C600   1.465       .  S
O295       Cu303   2.017       .  S
O295        C305   1.278       .  A
O296       Cu303   2.018       .  S
O296        C306   1.279       .  A
O297       Cu303   2.015       .  S
O297        C307   1.277       .  A
O298       Cu303   2.009       .  S
O298        C308   1.278       .  A
O299       Cu304   2.012       .  S
O299        C308   1.278       .  A
O300       Cu304   2.010       .  S
O300        C307   1.278       .  A
O301       Cu304   2.007       .  S
O301        C306   1.276       .  A
O302       Cu304   2.008       .  S
O302        C305   1.277       .  A
Cu303      Cu304   2.376       .  S
C305        C395   1.471       .  S
C306        C779   1.469       .  S
C307        C443   1.470       .  S
C308        C360   1.469       .  S
O309       Cu317   2.011       .  S
O309        C319   1.277       .  A
O310       Cu317   2.009       .  S
O310        C320   1.277       .  A
O311       Cu317   2.009       .  S
O311        C321   1.277       .  A
O312       Cu317   2.007       .  S
O312        C322   1.277       .  A
O313       Cu318   2.016       .  S
O313        C322   1.278       .  A
O314       Cu318   2.014       .  S
O314        C321   1.279       .  A
O315       Cu318   2.004       .  S
O315        C320   1.277       .  A
O316       Cu318   2.008       .  S
O316        C319   1.277       .  A
Cu317      Cu318   2.377       .  S
C319        C888   1.467       .  S
C320        C376   1.466       .  S
C321        C344   1.469       .  S
C322        C520   1.468       .  S
O323       Cu331   2.008       .  S
O323        C333   1.277       .  A
O324       Cu331   2.010       .  S
O324        C334   1.277       .  A
O325       Cu331   2.013       .  S
O325        C335   1.278       .  A
O326       Cu331   2.013       .  S
O326        C336   1.278       .  A
O327       Cu332   2.013       .  S
O327        C336   1.278       .  A
O328       Cu332   2.012       .  S
O328        C335   1.278       .  A
O329       Cu332   2.010       .  S
O329        C334   1.278       .  A
O330       Cu332   2.010       .  S
O330        C333   1.278       .  A
Cu331      Cu332   2.376       .  S
C333        C875   1.466       .  S
C334        C363   1.468       .  S
C335        C347   1.470       .  S
C336        C728   1.470       .  S
C337        C342   1.380       .  A
C337        C338   1.405       .  A
C337        O343   1.320       .  A
C338        C339   1.404       .  A
C338        H349   1.082       .  S
C339        C348   1.363       .  A
C339        C340   1.381       .  A
C340        C341   1.402       .  A
C340        O346   1.318       .  A
C341        C342   1.401       .  A
C341        H350   1.082       .  S
C342        C345   1.361       .  A
O343        C344   1.332       .  A
C344        C345   1.390       .  A
C345        H351   1.082       .  S
O346        C347   1.330       .  A
C347        C348   1.392       .  A
C348        H352   1.083       .  S
C353        C358   1.381       .  A
C353        C354   1.403       .  A
C353        O359   1.319       .  A
C354        C355   1.402       .  A
C354        H365   1.082       .  S
C355        C364   1.361       .  A
C355        C356   1.381       .  A
C356        C357   1.403       .  A
C356        O362   1.319       .  A
C357        C358   1.403       .  A
C357        H366   1.082       .  S
C358        C361   1.361       .  A
O359        C360   1.331       .  A
C360        C361   1.391       .  A
C361        H367   1.082       .  S
O362        C363   1.331       .  A
C363        C364   1.391       .  A
C364        H368   1.082       .  S
C369        C374   1.381       .  A
C369        C370   1.404       .  A
C369        O375   1.319       .  A
C370        C371   1.403   1_655  A
C370        H381   1.082   1_655  S
C371        C380   1.362       .  A
C371        C372   1.381       .  A
C372        C373   1.402   1_455  A
C372        O378   1.317       .  A
C373        C374   1.401       .  A
C373        H382   1.082       .  S
C374        C377   1.359       .  A
O375        C376   1.330       .  A
C376        C377   1.390       .  A
C377        H383   1.083       .  S
O378        C379   1.330       .  A
C379        C380   1.391       .  A
C380        H384   1.082       .  S
C385        C390   1.381       .  A
C385        C386   1.404       .  A
C385        O391   1.320       .  A
C386        C387   1.404   1_455  A
C386        H397   1.082       .  S
C387        C396   1.362       .  A
C387        C388   1.381       .  A
C388        C389   1.403       .  A
C388        O394   1.319       .  A
C389        C390   1.402   1_655  A
C389        H398   1.082       .  S
C390        C393   1.361       .  A
O391        C392   1.331       .  A
C392        C393   1.390       .  A
C393        H399   1.082       .  S
O394        C395   1.330       .  A
C395        C396   1.392       .  A
C396        H400   1.083       .  S
C401        C406   1.381       .  A
C401        C402   1.401       .  A
C401        O407   1.318       .  A
C402        C403   1.401       .  A
C402        H413   1.082       .  S
C403        C412   1.359       .  A
C403        C404   1.381       .  A
C404        C405   1.403       .  A
C404        O410   1.319       .  A
C405        C406   1.403       .  A
C405        H414   1.082       .  S
C406        C409   1.361       .  A
O407        C408   1.329       .  A
C408        C409   1.391       .  A
C409        H415   1.082       .  S
O410        C411   1.330       .  A
C411        C412   1.390       .  A
C412        H416   1.082       .  S
C417        C422   1.381       .  A
C417        C418   1.402       .  A
C417        O423   1.319       .  A
C418        C419   1.402       .  A
C418        H429   1.082       .  S
C419        C428   1.361       .  A
C419        C420   1.381       .  A
C420        C421   1.403       .  A
C420        O426   1.319       .  A
C421        C422   1.402       .  A
C421        H430   1.082       .  S
C422        C425   1.360       .  A
O423        C424   1.330       .  A
C424        C425   1.390       .  A
C425        H431   1.083       .  S
O426        C427   1.330       .  A
C427        C428   1.391       .  A
C428        H432   1.083       .  S
C433        C438   1.381       .  A
C433        C434   1.402       .  A
C433        O439   1.319       .  A
C434        C435   1.402       .  A
C434        H445   1.082       .  S
C435        C444   1.360       .  A
C435        C436   1.381       .  A
C436        C437   1.404       .  A
C436        O442   1.320       .  A
C437        C438   1.404       .  A
C437        H446   1.082       .  S
C438        C441   1.362       .  A
O439        C440   1.330       .  A
C440        C441   1.391       .  A
C441        H447   1.082       .  S
O442        C443   1.332       .  A
C443        C444   1.390       .  A
C444        H448   1.082       .  S
C449        C454   1.381       .  A
C449        C450   1.403       .  A
C449        O455   1.319       .  A
C450        C451   1.403   1_554  A
C450        H461   1.082       .  S
C451        C460   1.362       .  A
C451        C452   1.381       .  A
C452        C453   1.403       .  A
C452        O458   1.318       .  A
C453        C454   1.402   1_556  A
C453        H462   1.082       .  S
C454        C457   1.361       .  A
O455        C456   1.331       .  A
C456        C457   1.390       .  A
C457        H463   1.082       .  S
O458        C459   1.330       .  A
C459        C460   1.391       .  A
C460        H464   1.083       .  S
C465        C470   1.380       .  A
C465        C466   1.406       .  A
C465        O471   1.321       .  A
C466        C467   1.405       .  A
C466        H477   1.082       .  S
C467        C476   1.364       .  A
C467        C468   1.381       .  A
C468        C469   1.400       .  A
C468        O474   1.317       .  A
C469        C470   1.400       .  A
C469        H478   1.082       .  S
C470        C473   1.358       .  A
O471        C472   1.332       .  A
C472        C473   1.389       .  A
C473        H479   1.082       .  S
O474        C475   1.329       .  A
C475        C476   1.392       .  A
C476        H480   1.082       .  S
C481        C486   1.381       .  A
C481        C482   1.403       .  A
C481        O487   1.318       .  A
C482        C483   1.402   1_655  A
C482        H493   1.082       .  S
C483        C492   1.361       .  A
C483        C484   1.381       .  A
C484        C485   1.402       .  A
C484        O490   1.318       .  A
C485        C486   1.402   1_455  A
C485        H494   1.082       .  S
C486        C489   1.361       .  A
O487        C488   1.331       .  A
C488        C489   1.390       .  A
C489        H495   1.082       .  S
O490        C491   1.330       .  A
C491        C492   1.391       .  A
C492        H496   1.083       .  S
C497        C502   1.381       .  A
C497        C498   1.403       .  A
C497        O503   1.319       .  A
C498        C499   1.402       .  A
C498        H509   1.083       .  S
C499        C508   1.361   1_565  A
C499        C500   1.381   1_565  A
C500        C501   1.403   1_545  A
C500        O506   1.319       .  A
C501        C502   1.403       .  A
C501        H510   1.083   1_565  S
C502        C505   1.361       .  A
O503        C504   1.330       .  A
C504        C505   1.391       .  A
C505        H511   1.083       .  S
O506        C507   1.331       .  A
C507        C508   1.390       .  A
C508        H512   1.083       .  S
C513        C518   1.381       .  A
C513        C514   1.403       .  A
C513        O519   1.317       .  A
C514        C515   1.401       .  A
C514        H525   1.082       .  S
C515        C524   1.361       .  A
C515        C516   1.380       .  A
C516        C517   1.404       .  A
C516        O522   1.319       .  A
C517        C518   1.403       .  A
C517        H526   1.082       .  S
C518        C521   1.363       .  A
O519        C520   1.330       .  A
C520        C521   1.392       .  A
C521        H527   1.082       .  S
O522        C523   1.331       .  A
C523        C524   1.390       .  A
C524        H528   1.082       .  S
C529        C534   1.381       .  A
C529        C530   1.402       .  A
C529        O535   1.318       .  A
C530        C531   1.401   1_565  A
C530        H541   1.082       .  S
C531        C540   1.361       .  A
C531        C532   1.381   1_545  A
C532        C533   1.404       .  A
C532        O538   1.319   1_565  A
C533        C534   1.403       .  A
C533        H542   1.082       .  S
C534        C537   1.362       .  A
O535        C536   1.330       .  A
C536        C537   1.391       .  A
C537        H543   1.082       .  S
O538        C539   1.331       .  A
C539        C540   1.390       .  A
C540        H544   1.082       .  S
C545        C550   1.381       .  A
C545        C546   1.402       .  A
C545        O551   1.318       .  A
C546        C547   1.401       .  A
C546        H557   1.082       .  S
C547        C556   1.360       .  A
C547        C548   1.380       .  A
C548        C549   1.405       .  A
C548        O554   1.320       .  A
C549        C550   1.404       .  A
C549        H558   1.082       .  S
C550        C553   1.363       .  A
O551        C552   1.330       .  A
C552        C553   1.392       .  A
C553        H559   1.082       .  S
O554        C555   1.331       .  A
C555        C556   1.390       .  A
C556        H560   1.082       .  S
C561        C566   1.381       .  A
C561        C562   1.403       .  A
C561        O567   1.320       .  A
C562        C563   1.403   1_554  A
C562        H573   1.084       .  S
C563        C572   1.361       .  A
C563        C564   1.381       .  A
C564        C565   1.404       .  A
C564        O570   1.320       .  A
C565        C566   1.403   1_556  A
C565        H574   1.084       .  S
C566        C569   1.362       .  A
O567        C568   1.331       .  A
C568        C569   1.391       .  A
C569        H575   1.083       .  S
O570        C571   1.331       .  A
C571        C572   1.391       .  A
C572        H576   1.083       .  S
C577        C582   1.381       .  A
C577        C578   1.403       .  A
C577        O583   1.319       .  A
C578        C579   1.403   1_655  A
C578        H589   1.082   1_655  S
C579        C588   1.361       .  A
C579        C580   1.381       .  A
C580        C581   1.404   1_455  A
C580        O586   1.320       .  A
C581        C582   1.403       .  A
C581        H590   1.082       .  S
C582        C585   1.361       .  A
O583        C584   1.331       .  A
C584        C585   1.391       .  A
C585        H591   1.082       .  S
O586        C587   1.331       .  A
C587        C588   1.391       .  A
C588        H592   1.082       .  S
C593        C598   1.381       .  A
C593        C594   1.401       .  A
C593        O599   1.318       .  A
C594        C595   1.401       .  A
C594        H605   1.082       .  S
C595        C604   1.359       .  A
C595        C596   1.381       .  A
C596        C597   1.403       .  A
C596        O602   1.319       .  A
C597        C598   1.403       .  A
C597        H606   1.082       .  S
C598        C601   1.361       .  A
O599        C600   1.329       .  A
C600        C601   1.391       .  A
C601        H607   1.083       .  S
O602        C603   1.330       .  A
C603        C604   1.390       .  A
C604        H608   1.083       .  S
C609        C614   1.381       .  A
C609        C610   1.403       .  A
C609        O615   1.318       .  A
C610        C611   1.402       .  A
C610        H621   1.082       .  S
C611        C620   1.362       .  A
C611        C612   1.381       .  A
C612        C613   1.403       .  A
C612        O618   1.318       .  A
C613        C614   1.402       .  A
C613        H622   1.082       .  S
C614        C617   1.362       .  A
O615        C616   1.330       .  A
C616        C617   1.390       .  A
C617        H623   1.083       .  S
O618        C619   1.330       .  A
C619        C620   1.391       .  A
C620        H624   1.083       .  S
C625        C630   1.381       .  A
C625        C626   1.402       .  A
C625        O631   1.318       .  A
C626        C627   1.401       .  A
C626        H637   1.083       .  S
C627        C636   1.360       .  A
C627        C628   1.381       .  A
C628        C629   1.402       .  A
C628        O634   1.318       .  A
C629        C630   1.402       .  A
C629        H638   1.082       .  S
C630        C633   1.361       .  A
O631        C632   1.330       .  A
C632        C633   1.391       .  A
C633        H639   1.083       .  S
O634        C635   1.330       .  A
C635        C636   1.390       .  A
C636        H640   1.083       .  S
C641        C646   1.381       .  A
C641        C642   1.403       .  A
C641        O647   1.320       .  A
C642        C643   1.403       .  A
C642        H653   1.082       .  S
C643        C652   1.361       .  A
C643        C644   1.381       .  A
C644        C645   1.404       .  A
C644        O650   1.320       .  A
C645        C646   1.404       .  A
C645        H654   1.082       .  S
C646        C649   1.362       .  A
O647        C648   1.330       .  A
C648        C649   1.392       .  A
C649        H655   1.083       .  S
O650        C651   1.331       .  A
C651        C652   1.391       .  A
C652        H656   1.083       .  S
C657        C662   1.381       .  A
C657        C658   1.404       .  A
C657        O663   1.319       .  A
C658        C659   1.403       .  A
C658        H669   1.082       .  S
C659        C668   1.362       .  A
C659        C660   1.380       .  A
C660        C661   1.404       .  A
C660        O666   1.319       .  A
C661        C662   1.403       .  A
C661        H670   1.082       .  S
C662        C665   1.363       .  A
O663        C664   1.331       .  A
C664        C665   1.392       .  A
C665        H671   1.083       .  S
O666        C667   1.331       .  A
C667        C668   1.391       .  A
C668        H672   1.083       .  S
C673        C678   1.381       .  A
C673        C674   1.403       .  A
C673        O679   1.319       .  A
C674        C675   1.403       .  A
C674        H685   1.082       .  S
C675        C684   1.361       .  A
C675        C676   1.381       .  A
C676        C677   1.403       .  A
C676        O682   1.319       .  A
C677        C678   1.402       .  A
C677        H686   1.082       .  S
C678        C681   1.360       .  A
O679        C680   1.330       .  A
C680        C681   1.391       .  A
C681        H687   1.082       .  S
O682        C683   1.331       .  A
C683        C684   1.391       .  A
C684        H688   1.082       .  S
C689        C694   1.381       .  A
C689        C690   1.403       .  A
C689        O695   1.317       .  A
C690        C691   1.401       .  A
C690        H701   1.082       .  S
C691        C700   1.361       .  A
C691        C692   1.381       .  A
C692        C693   1.402       .  A
C692        O698   1.316       .  A
C693        C694   1.401       .  A
C693        H702   1.082       .  S
C694        C697   1.361       .  A
O695        C696   1.330       .  A
C696        C697   1.390       .  A
C697        H703   1.082       .  S
O698        C699   1.330       .  A
C699        C700   1.390       .  A
C700        H704   1.083       .  S
C705        C710   1.381   1_545  A
C705        C706   1.404   1_545  A
C705        O711   1.320       .  A
C706        C707   1.403       .  A
C706        H717   1.083   1_565  S
C707        C716   1.362       .  A
C707        C708   1.381       .  A
C708        C709   1.403       .  A
C708        O714   1.319       .  A
C709        C710   1.402       .  A
C709        H718   1.083       .  S
C710        C713   1.361   1_565  A
O711        C712   1.331       .  A
C712        C713   1.391       .  A
C713        H719   1.083       .  S
O714        C715   1.331       .  A
C715        C716   1.391       .  A
C716        H720   1.083       .  S
C721        C726   1.381       .  A
C721        C722   1.402       .  A
C721        O727   1.319       .  A
C722        C723   1.402       .  A
C722        H733   1.082       .  S
C723        C732   1.361       .  A
C723        C724   1.380       .  A
C724        C725   1.405       .  A
C724        O730   1.321       .  A
C725        C726   1.405       .  A
C725        H734   1.082       .  S
C726        C729   1.363       .  A
O727        C728   1.330       .  A
C728        C729   1.392       .  A
C729        H735   1.082       .  S
O730        C731   1.332       .  A
C731        C732   1.390       .  A
C732        H736   1.082       .  S
C737        C742   1.381       .  A
C737        C738   1.402       .  A
C737        O743   1.318       .  A
C738        C739   1.401       .  A
C738        H749   1.082       .  S
C739        C748   1.360       .  A
C739        C740   1.381       .  A
C740        C741   1.403       .  A
C740        O746   1.319       .  A
C741        C742   1.402       .  A
C741        H750   1.082       .  S
C742        C745   1.361       .  A
O743        C744   1.330       .  A
C744        C745   1.391       .  A
C745        H751   1.082       .  S
O746        C747   1.331       .  A
C747        C748   1.390       .  A
C748        H752   1.082       .  S
C753        C758   1.381       .  A
C753        C754   1.404       .  A
C753        O759   1.320       .  A
C754        C755   1.404   1_565  A
C754        H765   1.082       .  S
C755        C764   1.363       .  A
C755        C756   1.381   1_545  A
C756        C757   1.402       .  A
C756        O762   1.318   1_565  A
C757        C758   1.401       .  A
C757        H766   1.082       .  S
C758        C761   1.360       .  A
O759        C760   1.331       .  A
C760        C761   1.390       .  A
C761        H767   1.083       .  S
O762        C763   1.330       .  A
C763        C764   1.392       .  A
C764        H768   1.082       .  S
C769        C774   1.380       .  A
C769        C770   1.403       .  A
C769        O775   1.318       .  A
C770        C771   1.402       .  A
C770        H781   1.082       .  S
C771        C780   1.363       .  A
C771        C772   1.380       .  A
C772        C773   1.404       .  A
C772        O778   1.318       .  A
C773        C774   1.403       .  A
C773        H782   1.082       .  S
C774        C777   1.363       .  A
O775        C776   1.330       .  A
C776        C777   1.391       .  A
C777        H783   1.082       .  S
O778        C779   1.331       .  A
C779        C780   1.391       .  A
C780        H784   1.082       .  S
C785        C790   1.381       .  A
C785        C786   1.402       .  A
C785        O791   1.317       .  A
C786        C787   1.401       .  A
C786        H797   1.082       .  S
C787        C796   1.361       .  A
C787        C788   1.380       .  A
C788        C789   1.405       .  A
C788        O794   1.320       .  A
C789        C790   1.404       .  A
C789        H798   1.082       .  S
C790        C793   1.363       .  A
O791        C792   1.330       .  A
C792        C793   1.392       .  A
C793        H799   1.082       .  S
O794        C795   1.332       .  A
C795        C796   1.390       .  A
C796        H800   1.082       .  S
C801        C806   1.380       .  A
C801        C802   1.404       .  A
C801        O807   1.319       .  A
C802        C803   1.403       .  A
C802        H813   1.082       .  S
C803        C812   1.363       .  A
C803        C804   1.380       .  A
C804        C805   1.403       .  A
C804        O810   1.318       .  A
C805        C806   1.402       .  A
C805        H814   1.082       .  S
C806        C809   1.362       .  A
O807        C808   1.331       .  A
C808        C809   1.391       .  A
C809        H815   1.082       .  S
O810        C811   1.330       .  A
C811        C812   1.392       .  A
C812        H816   1.082       .  S
C817        C822   1.381       .  A
C817        C818   1.404       .  A
C817        O823   1.320       .  A
C818        C819   1.403       .  A
C818        H829   1.082       .  S
C819        C828   1.362       .  A
C819        C820   1.381       .  A
C820        C821   1.402       .  A
C820        O826   1.318       .  A
C821        C822   1.401       .  A
C821        H830   1.082       .  S
C822        C825   1.360       .  A
O823        C824   1.331       .  A
C824        C825   1.390       .  A
C825        H831   1.083       .  S
O826        C827   1.330       .  A
C827        C828   1.390       .  A
C828        H832   1.082       .  S
C833        C838   1.380       .  A
C833        C834   1.405       .  A
C833        O839   1.320       .  A
C834        C835   1.404       .  A
C834        H845   1.082       .  S
C835        C844   1.363       .  A
C835        C836   1.380       .  A
C836        C837   1.403       .  A
C836        O842   1.319       .  A
C837        C838   1.402       .  A
C837        H846   1.082       .  S
C838        C841   1.361       .  A
O839        C840   1.331       .  A
C840        C841   1.391       .  A
C841        H847   1.082       .  S
O842        C843   1.331       .  A
C843        C844   1.392       .  A
C844        H848   1.082       .  S
C849        C854   1.381       .  A
C849        C850   1.403       .  A
C849        O855   1.319       .  A
C850        C851   1.402       .  A
C850        H861   1.082       .  S
C851        C860   1.360       .  A
C851        C852   1.381       .  A
C852        C853   1.402       .  A
C852        O858   1.319       .  A
C853        C854   1.402       .  A
C853        H862   1.082       .  S
C854        C857   1.360       .  A
O855        C856   1.330       .  A
C856        C857   1.390       .  A
C857        H863   1.082       .  S
O858        C859   1.330       .  A
C859        C860   1.391       .  A
C860        H864   1.082       .  S
C865        C870   1.381       .  A
C865        C866   1.403       .  A
C865        O871   1.318       .  A
C866        C867   1.402       .  A
C866        H877   1.082       .  S
C867        C876   1.361       .  A
C867        C868   1.381       .  A
C868        C869   1.403       .  A
C868        O874   1.318       .  A
C869        C870   1.402       .  A
C869        H878   1.082       .  S
C870        C873   1.361       .  A
O871        C872   1.330       .  A
C872        C873   1.391       .  A
C873        H879   1.082       .  S
O874        C875   1.330       .  A
C875        C876   1.390       .  A
C876        H880   1.082       .  S
C881        C886   1.381       .  A
C881        C882   1.403       .  A
C881        O887   1.318       .  A
C882        C883   1.402       .  A
C882        H893   1.082       .  S
C883        C892   1.361       .  A
C883        C884   1.381       .  A
C884        C885   1.403       .  A
C884        O890   1.318       .  A
C885        C886   1.402       .  A
C885        H894   1.082       .  S
C886        C889   1.362       .  A
O887        C888   1.330       .  A
C888        C889   1.391       .  A
C889        H895   1.082       .  S
O890        C891   1.331       .  A
C891        C892   1.391       .  A
C892        H896   1.082       .  S
C897        C902   1.381       .  A
C897        C898   1.402       .  A
C897        O903   1.318       .  A
C898        C899   1.402       .  A
C898        H909   1.083       .  S
C899        C908   1.361       .  A
C899        C900   1.381       .  A
C900        C901   1.403       .  A
C900        O906   1.318       .  A
C901        C902   1.402       .  A
C901        H910   1.082       .  S
C902        C905   1.361       .  A
O903        C904   1.330       .  A
C904        C905   1.390       .  A
C905        H911   1.083       .  S
O906        C907   1.330       .  A
C907        C908   1.391       .  A
C908        H912   1.083       .  S
C913        C918   1.381       .  A
C913        C914   1.402       .  A
C913        O919   1.318       .  A
C914        C915   1.401       .  A
C914        H925   1.082       .  S
C915        C924   1.360       .  A
C915        C916   1.381       .  A
C916        C917   1.404       .  A
C916        O922   1.320       .  A
C917        C918   1.404       .  A
C917        H926   1.082       .  S
C918        C921   1.362       .  A
O919        C920   1.330       .  A
C920        C921   1.392       .  A
C921        H927   1.082       .  S
O922        C923   1.331       .  A
C923        C924   1.390       .  A
C924        H928   1.082       .  S
C929        C934   1.381       .  A
C929        C930   1.402       .  A
C929        O935   1.317       .  A
C930        C931   1.401       .  A
C930        H941   1.082       .  S
C931        C940   1.360       .  A
C931        C932   1.381       .  A
C932        C933   1.402       .  A
C932        O938   1.317       .  A
C933        C934   1.401       .  A
C933        H942   1.082       .  S
C934        C937   1.360       .  A
O935        C936   1.329       .  A
C936        C937   1.390       .  A
C937        H943   1.083       .  S
O938        C939   1.330       .  A
C939        C940   1.390       .  A
C940        H944   1.083       .  S
C945        C950   1.381       .  A
C945        C946   1.403       .  A
C945        O951   1.318       .  A
C946        C947   1.402       .  A
C946        H957   1.082       .  S
C947        C956   1.361       .  A
C947        C948   1.380       .  A
C948        C949   1.405       .  A
C948        O954   1.320       .  A
C949        C950   1.404       .  A
C949        H958   1.082       .  S
C950        C953   1.363       .  A
O951        C952   1.330       .  A
C952        C953   1.392       .  A
C953        H959   1.083       .  S
O954        C955   1.332       .  A
C955        C956   1.390       .  A
C956        H960   1.082       .  S
C961        C966   1.381       .  A
C961        C962   1.404       .  A
C961        O967   1.320       .  A
C962        C963   1.404       .  A
C962        H973   1.082       .  S
C963        C972   1.362       .  A
C963        C964   1.381       .  A
C964        C965   1.403       .  A
C964        O970   1.319       .  A
C965        C966   1.403       .  A
C965        H974   1.082       .  S
C966        C969   1.361       .  A
O967        C968   1.331       .  A
C968        C969   1.391       .  A
C969        H975   1.082       .  S
O970        C971   1.330       .  A
C971        C972   1.391       .  A
C972        H976   1.082       .  S
C977        C982   1.381       .  A
C977        C978   1.402       .  A
C977        O983   1.317       .  A
C978        C979   1.401       .  A
C978        H989   1.082       .  S
C979        C988   1.360       .  A
C979        C980   1.381       .  A
C980        C981   1.404       .  A
C980        O986   1.319       .  A
C981        C982   1.403       .  A
C981        H990   1.082       .  S
C982        C985   1.363       .  A
O983        C984   1.330       .  A
C984        C985   1.391       .  A
C985        H991   1.082       .  S
O986        C987   1.331       .  A
C987        C988   1.390       .  A
C988        H992   1.082       .  S
C993        C998   1.381       .  A
C993        C994   1.404       .  A
C993        O999   1.320       .  A
C994        C995   1.404       .  A
C994       H1005   1.082       .  S
C995       C1004   1.362       .  A
C995        C996   1.381       .  A
C996        C997   1.402       .  A
C996       O1002   1.318       .  A
C997        C998   1.401       .  A
C997       H1006   1.082       .  S
C998       C1001   1.359       .  A
O999       C1000   1.331       .  A
C1000      C1001   1.390       .  A
C1001      H1007   1.083       .  S
O1002      C1003   1.330       .  A
C1003      C1004   1.391       .  A
C1004      H1008   1.082       .  S
C1009      C1014   1.381       .  A
C1009      C1010   1.402       .  A
C1009      O1015   1.318       .  A
C1010      C1011   1.401   1_556  A
C1010      H1021   1.082       .  S
C1011      C1020   1.359       .  A
C1011      C1012   1.381       .  A
C1012      C1013   1.404       .  A
C1012      O1018   1.320       .  A
C1013      C1014   1.403   1_554  A
C1013      H1022   1.082       .  S
C1014      C1017   1.362       .  A
O1015      C1016   1.330       .  A
C1016      C1017   1.391       .  A
C1017      H1023   1.082       .  S
O1018      C1019   1.331       .  A
C1019      C1020   1.390       .  A
C1020      H1024   1.083       .  S
C1025      C1030   1.381       .  A
C1025      C1026   1.404       .  A
C1025      O1031   1.319       .  A
C1026      C1027   1.403       .  A
C1026      H1037   1.082       .  S
C1027      C1036   1.362       .  A
C1027      C1028   1.381       .  A
C1028      C1029   1.403       .  A
C1028      O1034   1.319       .  A
C1029      C1030   1.402       .  A
C1029      H1038   1.082       .  S
C1030      C1033   1.361       .  A
O1031      C1032   1.331       .  A
C1032      C1033   1.391       .  A
C1033      H1039   1.082       .  S
O1034      C1035   1.331       .  A
C1035      C1036   1.391       .  A
C1036      H1040   1.082       .  S
C1041      C1046   1.381       .  A
C1041      C1042   1.403       .  A
C1041      O1047   1.319       .  A
C1042      C1043   1.403       .  A
C1042      H1053   1.082       .  S
C1043      C1052   1.361       .  A
C1043      C1044   1.381       .  A
C1044      C1045   1.403       .  A
C1044      O1050   1.319       .  A
C1045      C1046   1.402       .  A
C1045      H1054   1.082       .  S
C1046      C1049   1.361       .  A
O1047      C1048   1.331       .  A
C1048      C1049   1.391       .  A
C1049      H1055   1.082       .  S
O1050      C1051   1.330       .  A
C1051      C1052   1.391       .  A
C1052      H1056   1.082       .  S
C1057      C1062   1.381       .  A
C1057      C1058   1.404       .  A
C1057      O1063   1.320       .  A
C1058      C1059   1.403       .  A
C1058      H1069   1.082       .  S
C1059      C1068   1.362       .  A
C1059      C1060   1.381       .  A
C1060      C1061   1.402       .  A
C1060      O1066   1.319       .  A
C1061      C1062   1.402       .  A
C1061      H1070   1.082       .  S
C1062      C1065   1.360       .  A
O1063      C1064   1.331       .  A
C1064      C1065   1.391       .  A
C1065      H1071   1.082       .  S
O1066      C1067   1.330       .  A
C1067      C1068   1.391       .  A
C1068      H1072   1.082       .  S
C1073      C1078   1.381       .  A
C1073      C1074   1.402   1_556  A
C1073      O1079   1.318       .  A
C1074      C1075   1.402       .  A
C1074      H1085   1.082       .  S
C1075      C1084   1.360       .  A
C1075      C1076   1.381       .  A
C1076      C1077   1.403   1_554  A
C1076      O1082   1.319       .  A
C1077      C1078   1.403       .  A
C1077      H1086   1.082       .  S
C1078      C1081   1.361       .  A
O1079      C1080   1.330       .  A
C1080      C1081   1.391       .  A
C1081      H1087   1.082       .  S
O1082      C1083   1.331       .  A
C1083      C1084   1.390       .  A
C1084      H1088   1.082       .  S
C1089      C1094   1.381       .  A
C1089      C1090   1.404       .  A
C1089      O1095   1.320       .  A
C1090      C1091   1.403       .  A
C1090      H1101   1.082       .  S
C1091      C1100   1.362       .  A
C1091      C1092   1.381       .  A
C1092      C1093   1.402       .  A
C1092      O1098   1.318       .  A
C1093      C1094   1.402       .  A
C1093      H1102   1.082       .  S
C1094      C1097   1.360       .  A
O1095      C1096   1.331       .  A
C1096      C1097   1.391       .  A
C1097      H1103   1.083       .  S
O1098      C1099   1.330       .  A
C1099      C1100   1.391       .  A
C1100      H1104   1.083       .  S
