geometry optimzed in LAMMPS
_audit_creation_date              2020-12-01 
_audit_creation_method            'lammps2cif' 
_symmetry_space_group_name_H-M    'P1' 
_symmetry_Int_Tables_number       1 
_symmetry_cell_setting            triclinic 
loop_ 
_symmetry_equiv_pos_as_xyz 
  x,y,z 
_cell_length_a                    37.62699577 
_cell_length_b                    37.366240606773374 
_cell_length_c                    61.95051510886302 
_cell_angle_alpha                 89.88543513030966 
_cell_angle_beta                  90.03544864791309 
_cell_angle_gamma                 90.06838733130856 
loop_ 
_atom_site_label 
_atom_site_type_symbol 
_atom_site_fract_x 
_atom_site_fract_y 
_atom_site_fract_z 
_atom_site_charge 
C1          C  0.42792509  0.31734107  0.35526618     0.80100
N2          N  0.39985793  0.30097590  0.34562626    -0.78200
C3          C  0.38745448  0.31299442  0.32633286     0.82500
N4          N  0.40327136  0.34132626  0.31660507    -0.78200
C5          C  0.43152965  0.35757225  0.32601992     0.82600
N6          N  0.44376972  0.34564471  0.34536402    -0.79900
C7          C  0.38815160  0.36202186  0.17921688     0.80100
N8          N  0.41508191  0.37908469  0.18962270    -0.78200
C9          C  0.42327910  0.37033057  0.21028955     0.82500
N10         N  0.40396195  0.34510269  0.22071530    -0.78200
C11         C  0.37800410  0.32694328  0.21024579     0.82600
N12         N  0.36964063  0.33583174  0.18957670    -0.79900
C13         C  0.16176742  0.35243682  0.36081511     0.80100
N14         N  0.17910524  0.32650903  0.34964286    -0.78200
C15         C  0.17111341  0.32018309  0.32863223     0.82500
N16         N  0.14585792  0.34020395  0.31867971    -0.78200
C17         C  0.12709281  0.36493251  0.32997048     0.82600
N18         N  0.13550473  0.37143503  0.35094998    -0.79900
C19         C  0.42933849  0.12178591  0.18199265     0.80100
N20         N  0.40132746  0.13854129  0.19135965    -0.78200
C21         C  0.39054884  0.12902611  0.21148783     0.82500
N22         N  0.40753901  0.10222876  0.22217900    -0.78200
C23         C  0.43575009  0.08563950  0.21291603     0.82600
N24         N  0.44663348  0.09566018  0.19295453    -0.79900
C25         C  0.44845969  0.38802266  0.31532807     0.42300
N26         N  0.98328340  0.43187024  0.30886867     0.01200
C27         C  0.98627438  0.03847282  0.21653273    -0.06700
H28         H  0.99541716  0.40456255  0.20052621     0.06700
C29         C  0.11283849  0.40413856  0.24579810    -0.07000
Co30       Co  0.46140946  0.47226097  0.26913207     0.74200
N31         N  0.98811817  0.43393688  0.23019949    -0.26200
Co32       Co  0.02878191  0.47149639  0.23121103     0.74100
C33         C  0.10091825  0.38768924  0.22583903     0.42400
N34         N  0.08752878  0.43061701  0.29652600     0.00800
N35         N  0.06697771  0.43167507  0.23287900     0.00900
N36         N  0.44239720  0.03893174  0.24160556    -0.47100
H37         H  0.41430193  0.39996700  0.28534477     0.06700
N38         N  0.46294714  0.43355027  0.24499609     0.01200
N39         N  0.07012686  0.00915130  0.23211855     0.00900
C40         C  0.10897506  0.04851745  0.22345318     0.42500
N41         N  0.06272393  0.43124629  0.31156247    -0.25700
C42         C  0.43762493  0.03705429  0.29644964    -0.06600
N43         N  0.97731034  0.40554137  0.32274290    -0.46800
N44         N  0.07925601  0.03181720  0.21657063    -0.47000
C45         C  0.44707262  0.05169880  0.31739484     0.42300
N46         N  0.46514263  0.01243451  0.24501549     0.01200
N47         N  0.06314161  0.00913048  0.31124767    -0.25700
N48         N  0.45991206  0.43271899  0.29294478    -0.26200
N49         N  0.08863630  0.00917641  0.29658781     0.00800
H50         H  0.05314145  0.04191569  0.33928957     0.06700
H51         H  0.14165252  0.03783828  0.25417235     0.06700
N52         N  0.99090835  0.01162544  0.23055815    -0.26200
N53         N  0.09029211  0.43126887  0.24880635    -0.25800
N54         N  0.98366341  0.00998767  0.30948932     0.01200
C55         C  0.44769048  0.39272226  0.22263388     0.42600
C56         C  0.07030477  0.40597450  0.32636326    -0.07100
N57         N  0.09289096  0.00902071  0.24833926    -0.25800
H58         H  0.13539142  0.39765746  0.25589371     0.06700
N59         N  0.43807145  0.40940625  0.24099742    -0.47100
H60         H  0.05573433  0.40110566  0.34111796     0.06700
C61         C  0.10175730  0.05250399  0.31763066     0.42400
C62         C  0.43677525  0.40582293  0.29563868    -0.06600
Co63       Co  0.02304292  0.47037548  0.31091133     0.73800
N64         N  0.11189463  0.40578386  0.30005171    -0.46800
C65         C  0.45430797  0.05651429  0.22398167     0.42700
N66         N  0.97548940  0.03335854  0.32482825    -0.46800
Co67       Co  0.09023396  0.46996883  0.27274554     0.73900
C68         C  0.11815594  0.03349163  0.24445869    -0.07100
C69         C  0.98050031  0.40932712  0.21514651    -0.06700
N70         N  0.46131902  0.01110556  0.29305861    -0.26200
N71         N  0.07256803  0.40609765  0.21854560    -0.47000
H72         H  0.00272719  0.04403293  0.20261632     0.06700
C73         C  0.06920105  0.03565586  0.32533701    -0.07100
Cl74       Cl  0.02584953  0.47106802  0.27101346    -0.50100
C75         C  0.10265383  0.38878918  0.31840191     0.42500
H76         H  0.41484931  0.04282930  0.28636700     0.06700
N77         N  0.11234759  0.03479314  0.29981771    -0.46800
C78         C  0.12552027  0.32439479  0.18294006     0.80100
N79         N  0.15353545  0.30717047  0.19222659    -0.78200
C80         C  0.16403312  0.31609531  0.21248709     0.82500
N81         N  0.14673829  0.34228507  0.22327062    -0.78200
C82         C  0.11879471  0.35926438  0.21412929     0.82600
N83         N  0.10808431  0.35023117  0.19401645    -0.79900
C84         C  0.38987082  0.08795437  0.36072327     0.80100
N85         N  0.37213064  0.11375870  0.34953418    -0.78200
C86         C  0.38034655  0.12050296  0.32858756     0.82500
N87         N  0.40571650  0.10087417  0.31873612    -0.78200
C88         C  0.42428429  0.07581412  0.32977854     0.82600
N89         N  0.41596234  0.06883861  0.35075086    -0.79900
C90         C  0.13096824  0.12260517  0.35592873     0.80100
N91         N  0.15762263  0.13801046  0.34455559    -0.78200
C92         C  0.16640118  0.12555193  0.32475825     0.82500
N93         N  0.14837713  0.09762158  0.31616397    -0.78200
C94         C  0.12127291  0.08232977  0.32728226     0.82600
N95         N  0.11256418  0.09479527  0.34719788    -0.79900
C96         C  0.15998854  0.08363013  0.17680346     0.80100
N97         N  0.18019484  0.10911130  0.18663858    -0.78200
C98         C  0.17655194  0.11538509  0.20812542     0.82500
N99         N  0.15330580  0.09559499  0.21984357    -0.78200
C100        C  0.13211574  0.07112944  0.21011338     0.82600
N101        N  0.13562602  0.06496957  0.18859382    -0.79900
C102        C  0.35483541  0.30336315  0.22273885     0.42300
N103        N  0.31413664  0.26534237  0.23014417     0.01200
C104        C  0.21125989  0.26364812  0.32345181    -0.06700
H105        H  0.34570050  0.24585690  0.33702405     0.06700
C106        C  0.34275992  0.13268312  0.29443612    -0.07000
Co107      Co  0.27521418  0.28583451  0.27038685     0.74200
N108        N  0.31353259  0.25775488  0.30908701    -0.26200
Co109      Co  0.27574539  0.21775190  0.30806549     0.74100
C110        C  0.35730711  0.14305890  0.31530221     0.42400
N111        N  0.31745517  0.15962724  0.24272509     0.00800
N112        N  0.31496113  0.17864455  0.30704930     0.00900
N113        N  0.21080477  0.30679344  0.29784145    -0.47100
H114        H  0.34391383  0.33564168  0.25354070     0.06700
N115        N  0.31392406  0.28386686  0.29472243     0.01200
N116        N  0.23813184  0.17777495  0.30587950     0.00900
C117        C  0.19526576  0.14248880  0.31294424     0.42500
N118        N  0.31663834  0.18537617  0.22808289    -0.25700
C119        C  0.21032774  0.30924314  0.24318643    -0.06600
N120        N  0.33768283  0.27425825  0.21513588    -0.46800
N121        N  0.21255603  0.17170879  0.31998803    -0.47000
C122        C  0.19381107  0.29809750  0.22309434     0.42300
N123        N  0.23582485  0.28269250  0.29403922     0.01200
N124        N  0.23988985  0.18233165  0.22722803    -0.25700
N125        N  0.31396850  0.28784480  0.24655824    -0.26200
N126        N  0.23998594  0.15704510  0.24214858     0.00800
H127        H  0.21118098  0.18809806  0.19714698     0.06700
H128        H  0.20675798  0.10750153  0.28317690     0.06700
N129        N  0.23659497  0.25713283  0.30873125    -0.26200
N130        N  0.31639536  0.15592026  0.29080037    -0.25800
N131        N  0.23701983  0.26288362  0.23006979     0.01200
C132        C  0.35710821  0.29538822  0.31609449     0.42600
C133        C  0.34308297  0.18009897  0.21395834    -0.07100
N134        N  0.23892912  0.15405041  0.29012360    -0.25800
H135        H  0.34903285  0.10971313  0.28455303     0.06700
N136        N  0.33980789  0.30722017  0.29833026    -0.47100
H137        H  0.34861648  0.19633852  0.19988625     0.06700
C138        C  0.20070684  0.13976903  0.21942692     0.42400
C139        C  0.33916973  0.31254738  0.24343492    -0.06600
Co140      Co  0.27682814  0.22409589  0.22839781     0.73800
N141        N  0.34350864  0.13646650  0.23943590    -0.46800
C142        C  0.19376239  0.29622961  0.31593604     0.42700
N143        N  0.21163457  0.26927119  0.21568618    -0.46800
Co144      Co  0.27824104  0.15599350  0.26643170     0.73900
C145        C  0.21247996  0.13049058  0.29317108    -0.07100
C146        C  0.33978388  0.26278383  0.32331502    -0.06700
N147        N  0.23690679  0.28610122  0.24614645    -0.26200
N148        N  0.33839136  0.17129402  0.32242564    -0.47000
H149        H  0.20660624  0.24828725  0.33798664     0.06700
C150        C  0.21606750  0.17350200  0.21193476    -0.07100
Cl151      Cl  0.27648474  0.22092390  0.26828665    -0.50100
C152        C  0.36076883  0.14777236  0.22161471     0.42500
H153        H  0.20419524  0.33178635  0.25344627     0.06700
N154        N  0.21696261  0.13114107  0.23809197    -0.46800
C155        C  0.25653299  0.46355786  0.49793111     0.02100
C156        C  0.28457932  0.48917563  0.49845113     0.02100
C157        C  0.29847851  0.49980560  0.51858630    -0.18400
C158        C  0.28536384  0.48565290  0.53809393     0.02100
C159        C  0.25611793  0.46160222  0.53747300     0.02100
C160        C  0.24194211  0.45142415  0.51748660    -0.18400
H161        H  0.22029669  0.43221538  0.51712111     0.04100
H162        H  0.31896951  0.01793634  0.51946224     0.04100
C163        C  0.04311567  0.23597492  0.03826912     0.02100
C164        C  0.02157471  0.20468117  0.03796131     0.02100
C165        C  0.51174345  0.18985486  0.01800303    -0.18400
C166        C  0.02224763  0.20546045  0.99839348     0.02100
C167        C  0.04481066  0.23593174  0.99871900     0.02100
C168        C  0.05429750  0.25108530  0.01863039    -0.18400
H169        H  0.07109046  0.27471129  0.01884286     0.04100
H170        H  0.49505522  0.16616141  0.01771493     0.04100
C171        C  0.05003490  0.20956932  0.50128485     0.02100
C172        C  0.02028804  0.23293113  0.50020502     0.00900
C173        C  0.00421249  0.24428507  0.51950094    -0.18400
C174        C  0.01679768  0.23306050  0.53980570     0.02100
C175        C  0.04551295  0.20840896  0.54083890     0.02100
C176        C  0.06216135  0.19777861  0.52157059    -0.18400
H177        H  0.08463105  0.17963319  0.52237207     0.04100
H178        H  0.48185138  0.26257070  0.51872504     0.04100
C179        C  0.26463119  0.49554962  0.03746344     0.02100
C180        C  0.28904260  0.46766661  0.04281612     0.02100
C181        C  0.30542718  0.44851695  0.02630897    -0.18400
C182        C  0.30118465  0.45930716  0.00516866     0.02100
C183        C  0.28062324  0.48778786  0.99901273     0.02100
C184        C  0.26025739  0.50486940  0.01535478    -0.18400
H185        H  0.24136032  0.02468840  0.01209462     0.04100
H186        H  0.32249252  0.42574039  0.02998421     0.04100
C187        C  0.36922244  0.37475140  0.85102101     0.80100
N188        N  0.35431272  0.34686927  0.84028081    -0.78200
C189        C  0.36969750  0.33376648  0.82213411     0.82500
N190        N  0.39984377  0.34895181  0.81442288    -0.78200
C191        C  0.41466603  0.37714696  0.82482636     0.82600
N192        N  0.39954830  0.38978103  0.84321605    -0.79900
C193        C  0.41845071  0.10452471  0.86117698     0.80100
N194        N  0.39214420  0.12257527  0.85064805    -0.78200
C195        C  0.38355886  0.11370423  0.83001932     0.82500
N196        N  0.40209274  0.08771223  0.81983385    -0.78200
C197        C  0.42760565  0.06899285  0.83032026     0.82600
N198        N  0.43610299  0.07772046  0.85093976    -0.79900
C199        C  0.18745854  0.06150815  0.85486387     0.80100
N200        N  0.15940241  0.04519039  0.84496714    -0.78200
C201        C  0.14527505  0.05941092  0.82654319     0.82500
N202        N  0.15977214  0.08931583  0.81773083    -0.78200
C203        C  0.18773758  0.10544334  0.82739562     0.82600
N204        N  0.20087192  0.09186609  0.84599936    -0.79900
C205        C  0.15081288  0.33411245  0.86143775     0.80100
N206        N  0.13163994  0.35962970  0.85103454    -0.78200
C207        C  0.13738622  0.36633875  0.82978954     0.82500
N208        N  0.16166189  0.34673831  0.81876873    -0.78200
C209        C  0.18193572  0.32222659  0.82922759     0.82600
N210        N  0.17625435  0.31573997  0.85051899    -0.79900
C211        C  0.14181274  0.10367912  0.67949548     0.80100
N212        N  0.16768871  0.12224342  0.69001923    -0.78200
C213        C  0.17540931  0.11435454  0.71094732     0.82500
N214        N  0.15654634  0.08881136  0.72143266    -0.78200
C215        C  0.13162974  0.06948439  0.71086763     0.82600
N216        N  0.12397472  0.07719637  0.68997996    -0.79900
C217        C  0.37494921  0.05537472  0.68534262     0.80100
N218        N  0.40268905  0.03992422  0.69575807    -0.78200
C219        C  0.41435464  0.05307386  0.71492049     0.82500
N220        N  0.39809317  0.08196285  0.72378443    -0.78200
C221        C  0.37001676  0.09750327  0.71360956     0.82600
N222        N  0.35864745  0.08428588  0.69429879    -0.79900
C223        C  0.35501246  0.30191421  0.81180659     0.42300
N224        N  0.32308396  0.25557204  0.80655040     0.01200
C225        C  0.32081363  0.14729913  0.71553140    -0.06700
H226        H  0.31282512  0.28242037  0.69845157     0.06700
C227        C  0.19464711  0.28337751  0.74381404    -0.07000
Co228      Co  0.34553746  0.21425035  0.76740714     0.74200
N229        N  0.31945284  0.25237618  0.72806896    -0.26200
Co230      Co  0.27819127  0.21512359  0.72930872     0.74100
C231        C  0.20638859  0.29997181  0.72378911     0.42400
N232        N  0.21946427  0.25699936  0.79478373     0.00800
N233        N  0.24008459  0.25547681  0.73077066     0.00900
N234        N  0.36436829  0.14693157  0.74078988    -0.47100
H235        H  0.39031598  0.28975129  0.78236705     0.06700
N236        N  0.34444557  0.25246721  0.74300238     0.01200
N237        N  0.23710088  0.17783435  0.73107717     0.00900
C238        C  0.19894916  0.13736077  0.72353337     0.42500
N239        N  0.24459047  0.25608476  0.80960933    -0.25700
C240        C  0.36983337  0.15081945  0.79589820    -0.06600
N241        N  0.32712833  0.28333413  0.81951829    -0.46800
N242        N  0.22814216  0.15427578  0.71603776    -0.47000
C243        C  0.36037488  0.13668235  0.81700881     0.42300
N244        N  0.34206569  0.17396332  0.74379680     0.01200
N245        N  0.24396064  0.17885837  0.81003037    -0.25700
N246        N  0.34670885  0.25468160  0.79079698    -0.26200
N247        N  0.21809389  0.17868826  0.79560345     0.00800
H248        H  0.25444079  0.14715435  0.83843310     0.06700
H249        H  0.16669968  0.14865543  0.75424537     0.06700
N250        N  0.31638801  0.17470305  0.72923379    -0.26200
N251        N  0.21691704  0.25600371  0.74679957    -0.25800
N252        N  0.32343591  0.17782634  0.80837975     0.01200
C253        C  0.36054603  0.29335838  0.72083266     0.42600
C254        C  0.23778437  0.28126490  0.82445805    -0.07100
N255        N  0.21458799  0.17826200  0.74741758    -0.25800
H256        H  0.17239449  0.29012117  0.75406441     0.06700
N257        N  0.36951760  0.27651577  0.73927119    -0.47100
H258        H  0.25280091  0.28578222  0.83908600     0.06700
C259        C  0.20520027  0.13624301  0.81740102     0.42400
C260        C  0.36835180  0.28304605  0.79287007    -0.06600
Co261      Co  0.28390988  0.21699541  0.80905294     0.73800
N262        N  0.19535008  0.28199056  0.79860774    -0.46800
C263        C  0.35253549  0.12892278  0.72326958     0.42700
N264        N  0.33176065  0.15505061  0.82407429    -0.46800
Co265      Co  0.21658410  0.21743368  0.77114664     0.73900
C266        C  0.18982396  0.15314881  0.74422841    -0.07100
C267        C  0.32760599  0.27712391  0.71307700    -0.06700
N268        N  0.34590996  0.17645418  0.79205412    -0.26200
N269        N  0.23457261  0.28132003  0.71642931    -0.47000
H270        H  0.30420056  0.14136773  0.70174872     0.06700
C271        C  0.23809317  0.15295835  0.82451213    -0.07100
Cl272      Cl  0.28104285  0.21581146  0.76922080    -0.50100
C273        C  0.20549409  0.29878696  0.81686764     0.42500
H274        H  0.39281484  0.14505285  0.78602341     0.06700
N275        N  0.19418781  0.15334812  0.79938929    -0.46800
C276        C  0.41810848  0.33280079  0.67870543     0.80100
N277        N  0.43616922  0.35762875  0.69040794    -0.78200
C278        C  0.42885784  0.36231266  0.71165837     0.82500
N279        N  0.40383851  0.34164215  0.72130113    -0.78200
C280        C  0.38462522  0.31785962  0.70958003     0.82600
N281        N  0.39214589  0.31304679  0.68833039    -0.79900
C282        C  0.18073294  0.36828758  0.68309716     0.80100
N283        N  0.15362604  0.38478774  0.69366730    -0.78200
C284        C  0.14406632  0.37377233  0.71373809     0.82500
N285        N  0.16162257  0.34636646  0.72317156    -0.78200
C286        C  0.18882538  0.32993306  0.71291661     0.82600
N287        N  0.19842573  0.34078505  0.69277555    -0.79900
C288        C  0.45181639  0.38509371  0.72488042     0.42300
N289        N  0.49333249  0.42213809  0.73263073     0.01200
C290        C  0.09577795  0.42213404  0.82596537    -0.06700
H291        H  0.45827527  0.44241029  0.83775114     0.06700
C292        C  0.46587102  0.05546322  0.79692867    -0.07000
Co293      Co  0.03202682  0.40091345  0.77271359     0.74200
N294        N  0.49302841  0.42933748  0.81118609    -0.26200
Co295      Co  0.03170322  0.46889104  0.81087117     0.74100
C296        C  0.45080388  0.04566713  0.81770383     0.42400
N297        N  0.49040483  0.02753538  0.74574825     0.00800
N298        N  0.49279703  0.00922524  0.81010576     0.00900
N299        N  0.09621284  0.37982286  0.79990449    -0.47100
H300        H  0.46246248  0.35161202  0.75538303     0.06700
N301        N  0.49293398  0.40336169  0.79675162     0.01200
N302        N  0.07011316  0.00898567  0.80944228     0.00900
C303        C  0.11443315  0.04302897  0.81595311     0.42500
N304        N  0.49127659  0.00133623  0.73147463    -0.25700
C305        C  0.09795057  0.37802443  0.74519613    -0.06600
N306        N  0.46949690  0.41416028  0.71762086    -0.46800
N307        N  0.09650839  0.01423720  0.82325737    -0.47000
C308        C  0.11440755  0.39046115  0.72520936     0.42300
N309        N  0.07096192  0.40378029  0.79649045     0.01200
N310        N  0.06814139  0.00433617  0.73065483    -0.25700
N311        N  0.49328212  0.39913140  0.74880088    -0.26200
N312        N  0.06846188  0.02965567  0.74545447     0.00800
H313        H  0.09744914  0.99704618  0.70100958     0.06700
H314        H  0.10294977  0.07801423  0.78607832     0.06700
N315        N  0.07021582  0.42891602  0.81140841    -0.26200
N316        N  0.49189968  0.03179066  0.79371088    -0.25800
N317        N  0.07051711  0.42437574  0.73265800     0.01200
C318        C  0.44731793  0.39328394  0.81645962     0.42600
C319        C  0.46384451  0.00480651  0.71791543    -0.07100
N320        N  0.06949869  0.03267767  0.79357396    -0.25800
H321        H  0.46014425  0.07836332  0.78680108     0.06700
N322        N  0.46580375  0.38112083  0.79930622    -0.47100
H323        H  0.45796180  0.98748042  0.70441398     0.06700
C324        C  0.10894815  0.04513445  0.72308155     0.42400
C325        C  0.46762334  0.37488342  0.74545403    -0.06600
Co326      Co  0.03104299  0.46299771  0.73124844     0.73800
N327        N  0.46309199  0.04943247  0.74264208    -0.46800
C328        C  0.11329527  0.38995759  0.81800730     0.42700
N329        N  0.09597961  0.41913511  0.71824834    -0.46800
Co330      Co  0.03004787  0.03124018  0.76958201     0.73900
C331        C  0.09664897  0.05546701  0.79635960    -0.07100
C332        C  0.46521864  0.42512034  0.82443683    -0.06700
N333        N  0.07086728  0.40061868  0.74848370    -0.26200
N334        N  0.46919413  0.01723860  0.82526504    -0.47000
H335        H  0.10086401  0.43732777  0.84047941     0.06700
C336        C  0.09258784  0.01207737  0.71560232    -0.07100
Cl337      Cl  0.03136460  0.46593063  0.77103228    -0.50100
C338        C  0.44521293  0.03647661  0.72538646     0.42500
H339        H  0.10462500  0.35524418  0.75519363     0.06700
N340        N  0.09239887  0.05475371  0.74146023    -0.46800
C341        C  0.20422898  0.04717500  0.87505389     0.01200
C342        C  0.24099034  0.05346214  0.87875620     0.04000
C343        C  0.25592556  0.04729395  0.89916761    -0.12100
C344        C  0.23662524  0.02840031  0.91495338     0.23300
C345        C  0.20026742  0.02115252  0.91143578    -0.12600
C346        C  0.18389174  0.03088223  0.89172396     0.04700
C347        C  0.25451078  0.01692387  0.93543152     0.27100
C348        C  0.26979065  0.48165376  0.93732273    -0.13300
C349        C  0.28871787  0.47045669  0.95733302     0.05200
C350        C  0.28040774  0.49720317  0.97496132    -0.09300
C351        C  0.27292674  0.03315845  0.97107993     0.06000
C352        C  0.25853986  0.04270269  0.95144518    -0.13600
Br353      Br  0.17255728  0.00019496  0.93448680    -0.05700
Br354      Br  0.27298392  0.06731145  0.85572022    -0.00100
Br355      Br  0.34691320  0.39219999  0.96748553     0.00400
Br356      Br  0.23958569  0.09052772  0.94772818    -0.04100
Br357      Br  0.13351422  0.02254429  0.88850161     0.00500
Br358      Br  0.30099123  0.06948561  0.90620071    -0.03300
Br359      Br  0.25230309  0.45035900  0.91434697    -0.04200
Br360      Br  0.28760219  0.07089839  0.99061661    -0.00200
C361        C  0.35408501  0.38694602  0.87191411     0.01200
C362        C  0.34765188  0.42340535  0.87553196     0.04000
C363        C  0.33628042  0.43545095  0.89596830    -0.12100
C364        C  0.32973202  0.41119358  0.91334791     0.23300
C365        C  0.33555979  0.37383154  0.90908109    -0.12600
C366        C  0.34761963  0.36221878  0.88861303     0.04700
C367        C  0.31984498  0.42553023  0.93577992     0.27100
C368        C  0.34787672  0.45209837  0.94783059    -0.13300
C369        C  0.34510362  0.45926648  0.97341757     0.05200
C370        C  0.31394118  0.44001754  0.98741360    -0.09300
C371        C  0.28474585  0.41477287  0.97562060     0.06000
C372        C  0.28763207  0.40739440  0.95003975    -0.13600
Br373      Br  0.33085914  0.33616459  0.93033085    -0.05700
Br374      Br  0.35320219  0.45706775  0.85190289    -0.00100
Br375      Br  0.37828025  0.49048440  0.98751585     0.00400
Br376      Br  0.25356022  0.37378452  0.93828393    -0.04100
Br377      Br  0.35799210  0.31188086  0.88386725     0.00500
Br378      Br  0.33051409  0.48605428  0.89910340    -0.03300
Br379      Br  0.39248958  0.46467688  0.93461040    -0.04200
Br380      Br  0.24479813  0.39719229  0.99174495    -0.00200
C381        C  0.05818558  0.19213136  0.56153946     0.01200
C382        C  0.08322587  0.21008396  0.57463595     0.04000
C383        C  0.09532873  0.19438227  0.59396846    -0.12100
C384        C  0.08456334  0.15953350  0.59964718     0.23300
C385        C  0.06126553  0.14057487  0.58606375    -0.12600
C386        C  0.04799836  0.15680515  0.56713995     0.04700
C387        C  0.09843862  0.14289642  0.61977759     0.27100
C388        C  0.13187498  0.12579728  0.61988114    -0.13300
C389        C  0.14646052  0.11315348  0.63943237     0.05200
C390        C  0.12751844  0.11727804  0.65884831    -0.09300
C391        C  0.09410339  0.13439960  0.65870326     0.06000
C392        C  0.07929934  0.14648802  0.63916831    -0.13600
Br393      Br  0.04842169  0.09196274  0.59324895    -0.05700
Br394      Br  0.10464534  0.25400916  0.56506972    -0.00100
Br395      Br  0.19235085  0.09046338  0.63976833     0.00400
Br396      Br  0.03269440  0.16794276  0.63888633    -0.04100
Br397      Br  0.01769087  0.12935022  0.54835208     0.00500
Br398      Br  0.12736965  0.22028036  0.61266462    -0.03300
Br399      Br  0.15740385  0.11960343  0.59316428    -0.04200
Br400      Br  0.06964687  0.14364771  0.68552808    -0.00200
C401        C  0.43228032  0.32146700  0.65756565     0.01200
C402        C  0.46579694  0.30452757  0.65669794     0.04000
C403        C  0.47887494  0.29146662  0.63697355    -0.12100
C404        C  0.45853614  0.29512467  0.61799984     0.23300
C405        C  0.42553506  0.31300470  0.61871995    -0.12600
C406        C  0.41228573  0.32589917  0.63852047     0.04700
C407        C  0.47196299  0.27994311  0.59738394     0.27100
C408        C  0.49694663  0.29909097  0.58502322    -0.13300
C409        C  0.51094906  0.28404297  0.56604143     0.05200
C410        C  0.00070087  0.24928322  0.55950676    -0.09300
C411        C  0.97324706  0.23165939  0.57086279     0.06000
C412        C  0.45957286  0.24650066  0.59003978    -0.13600
Br413      Br  0.39883398  0.32010691  0.59247734    -0.05700
Br414      Br  0.49330719  0.29754803  0.68273715    -0.00100
Br415      Br  0.54186214  0.31267904  0.54822545     0.00400
Br416      Br  0.42340008  0.22138129  0.60616666    -0.04100
Br417      Br  0.36718673  0.35024587  0.63956065     0.00500
Br418      Br  0.02468381  0.26830156  0.63591493    -0.03300
Br419      Br  0.51126658  0.34643448  0.59395255    -0.04200
Br420      Br  0.95119106  0.18969422  0.55890499    -0.00200
C421        C  0.13776825  0.32032927  0.88231514     0.01200
C422        C  0.12249805  0.28577448  0.88314250     0.04000
C423        C  0.10742257  0.27307344  0.90240675    -0.12100
C424        C  0.10668810  0.29504244  0.92080031     0.23300
C425        C  0.12195070  0.32952262  0.92009300    -0.12600
C426        C  0.13757859  0.34215002  0.90085555     0.04700
C427        C  0.09097572  0.28106301  0.94105525     0.27100
C428        C  0.05561960  0.28917533  0.94657523    -0.13300
C429        C  0.04105703  0.27588234  0.96591393     0.05200
C430        C  0.06052770  0.25156867  0.97874854    -0.09300
C431        C  0.09627558  0.24415824  0.97331892     0.06000
C432        C  0.11146020  0.25908657  0.95463837    -0.13600
Br433      Br  0.12172152  0.35906697  0.94559405    -0.05700
Br434      Br  0.12009837  0.25623597  0.85759553    -0.00100
Br435      Br  0.99663769  0.29485954  0.97596698     0.00400
Br436      Br  0.16046011  0.24941827  0.94740715    -0.04100
Br437      Br  0.15952285  0.38881331  0.90002185     0.00500
Br438      Br  0.08783370  0.22533243  0.90374524    -0.03300
Br439      Br  0.02706993  0.31805072  0.92741877    -0.04200
Br440      Br  0.12556320  0.21506966  0.99178208    -0.00200
C441        C  0.50820074  0.18973200  0.97799908     0.01200
C442        C  0.02810721  0.16409950  0.96647758     0.04000
C443        C  0.01494863  0.14992696  0.94697536    -0.12100
C444        C  0.48086547  0.15961213  0.93960749     0.23300
C445        C  0.45981408  0.18295010  0.95192205    -0.12600
C446        C  0.47325284  0.19774642  0.97109964     0.04700
C447        C  0.46621640  0.14454423  0.91931584     0.27100
C448        C  0.46776042  0.16476462  0.90013441    -0.13300
C449        C  0.45181837  0.15171380  0.88117841     0.05200
C450        C  0.43324735  0.11885552  0.88148528    -0.09300
C451        C  0.43145298  0.09878541  0.90071809     0.06000
C452        C  0.44826212  0.11139430  0.91955676    -0.13600
Br453      Br  0.41194048  0.19373559  0.94264440    -0.05700
Br454      Br  0.07096618  0.14471842  0.97871710    -0.00100
Br455      Br  0.45679693  0.17829341  0.85457581     0.00400
Br456      Br  0.44639430  0.08361832  0.94582068    -0.04100
Br457      Br  0.44206287  0.22636010  0.98855731     0.00500
Br458      Br  0.04312399  0.11662306  0.93053455    -0.03300
Br459      Br  0.49126739  0.21068518  0.90001901    -0.04200
Br460      Br  0.40485055  0.05473965  0.90137119    -0.00200
C461        C  0.30270451  0.49578608  0.55897244     0.01200
C462        C  0.28278457  0.01800360  0.57365331     0.04000
C463        C  0.29740970  0.02487727  0.59416940    -0.12100
C464        C  0.32971532  0.00888653  0.60045856     0.23300
C465        C  0.35024786  0.48712924  0.58554897    -0.12600
C466        C  0.33671661  0.48239052  0.56447669     0.04700
C467        C  0.34539423  0.01815177  0.62190635     0.27100
C468        C  0.36334910  0.05103309  0.62448050    -0.13300
C469        C  0.37278449  0.06317894  0.64522952     0.05200
C470        C  0.36468661  0.04237739  0.66359559    -0.09300
C471        C  0.34873507  0.00843922  0.66094264     0.06000
C472        C  0.33926176  0.99628549  0.64013405    -0.13600
Br473      Br  0.39379712  0.46396226  0.59409985    -0.05700
Br474      Br  0.24099820  0.04365532  0.56461820    -0.00100
Br475      Br  0.39756655  0.10809776  0.64846496     0.00400
Br476      Br  0.31886208  0.44979177  0.63677828    -0.04100
Br477      Br  0.36613409  0.45990262  0.54287559     0.00500
Br478      Br  0.27387592  0.05748482  0.61355921    -0.03300
Br479      Br  0.37482451  0.07948976  0.59940793    -0.04200
Br480      Br  0.33860628  0.97923211  0.68590727    -0.00200
C481        C  0.19039858  0.38016856  0.66109877     0.01200
C482        C  0.18462081  0.35752467  0.64322708     0.04000
C483        C  0.19215302  0.36975156  0.62217684    -0.12100
C484        C  0.20592971  0.40448615  0.61895356     0.23300
C485        C  0.21105642  0.42725758  0.63680063    -0.12600
C486        C  0.20367315  0.41503665  0.65781174     0.04700
C487        C  0.21685193  0.41661136  0.59704629     0.27100
C488        C  0.24938621  0.40488614  0.58833812    -0.13300
C489        C  0.26110484  0.41813657  0.56832337     0.05200
C490        C  0.24142040  0.44466647  0.55738624    -0.09300
C491        C  0.20731100  0.45394039  0.56513108     0.06000
C492        C  0.19528527  0.44027441  0.58506992    -0.13600
Br493      Br  0.22762977  0.47553255  0.63241843    -0.05700
Br494      Br  0.16543264  0.31012431  0.64750238    -0.00100
Br495      Br  0.30203485  0.39689800  0.55487795     0.00400
Br496      Br  0.14940180  0.45405143  0.59616751    -0.04100
Br497      Br  0.21328709  0.44561415  0.68221534     0.00500
Br498      Br  0.18285159  0.33935589  0.59765283    -0.03300
Br499      Br  0.27817695  0.37078430  0.60393704    -0.04200
Br500      Br  0.17628569  0.48399245  0.54813222    -0.00200
C501        C  0.24567810  0.01455120  0.05541031     0.01200
C502        C  0.20882338  0.00911867  0.05846184     0.04000
C503        C  0.19194009  0.02265063  0.07707402    -0.12100
C504        C  0.21169817  0.04187562  0.09254546     0.23300
C505        C  0.24761092  0.05005728  0.08845479    -0.12600
C506        C  0.26403575  0.03765911  0.06951458     0.04700
C507        C  0.19539928  0.05204185  0.11354961     0.27100
C508        C  0.18193399  0.08680475  0.11686276    -0.13300
C509        C  0.16855341  0.09669069  0.13727510     0.05200
C510        C  0.16915866  0.07205851  0.15458263    -0.09300
C511        C  0.18203262  0.03699477  0.15105855     0.06000
C512        C  0.19493144  0.02707180  0.13060435    -0.13600
Br513      Br  0.27474968  0.07707197  0.10925431    -0.05700
Br514      Br  0.18068147  0.48187898  0.03661747    -0.00100
Br515      Br  0.14874842  0.14374906  0.14143393     0.00400
Br516      Br  0.20318324  0.47544357  0.12484536    -0.04100
Br517      Br  0.31028627  0.05542707  0.06181366     0.00500
Br518      Br  0.14204031  0.01396827  0.08190463    -0.03300
Br519      Br  0.18298970  0.12110542  0.09356220    -0.04200
Br520      Br  0.18473004  0.00295970  0.17453233    -0.00200
C521        C  0.06821114  0.19665415  0.48133929     0.01200
C522        C  0.08812744  0.22055470  0.46844851     0.04000
C523        C  0.09941785  0.21028229  0.44770036    -0.12100
C524        C  0.09291520  0.17521757  0.44037262     0.23300
C525        C  0.07742750  0.14995728  0.45437028    -0.12600
C526        C  0.06522464  0.16052720  0.47482843     0.04700
C527        C  0.10343728  0.16406520  0.41831495     0.27100
C528        C  0.07767879  0.16210797  0.40182801    -0.13300
C529        C  0.08691355  0.14928534  0.38128407     0.05200
C530        C  0.12164613  0.13686963  0.37738033    -0.09300
C531        C  0.14758385  0.13900419  0.39385780     0.06000
C532        C  0.13847169  0.15274336  0.41425405    -0.13600
Br533      Br  0.07343236  0.10062149  0.44541896    -0.05700
Br534      Br  0.10413709  0.26530834  0.48029840    -0.00100
Br535      Br  0.05235724  0.15052045  0.35820165     0.00400
Br536      Br  0.17345359  0.15465818  0.43704581    -0.04100
Br537      Br  0.04575400  0.12478091  0.49388988     0.00500
Br538      Br  0.12433310  0.24390515  0.42948294    -0.03300
Br539      Br  0.02927243  0.17542699  0.40765225    -0.04200
Br540      Br  0.19522919  0.12163648  0.38900371    -0.00200
C541        C  0.37487184  0.07512569  0.38141976     0.01200
C542        C  0.34215840  0.05656026  0.38126954     0.04000
C543        C  0.32685345  0.04469907  0.40073426    -0.12100
C544        C  0.34439176  0.05075329  0.42048312     0.23300
C545        C  0.37683544  0.06982128  0.42070710    -0.12600
C546        C  0.39228569  0.08158220  0.40116741     0.04700
C547        C  0.32943522  0.03551575  0.44079981     0.27100
C548        C  0.30781157  0.05648899  0.45432799    -0.13300
C549        C  0.29393946  0.04188236  0.47358000     0.05200
C550        C  0.30032397  0.50505201  0.47842585    -0.09300
C551        C  0.32342040  0.48480650  0.46529579     0.06000
C552        C  0.33736498  0.49954835  0.44612657    -0.13600
Br553      Br  0.39964104  0.08032141  0.44784905    -0.05700
Br554      Br  0.31897181  0.04584664  0.35420532    -0.00100
Br555      Br  0.26825180  0.07250738  0.49322540     0.00400
Br556      Br  0.36791573  0.47120429  0.42789954    -0.04100
Br557      Br  0.43721720  0.10642090  0.40135008     0.00500
Br558      Br  0.28151054  0.02048353  0.40048200    -0.03300
Br559      Br  0.29655204  0.10498459  0.44607374    -0.04200
Br560      Br  0.33936261  0.43839839  0.47465159    -0.00200
C561        C  0.11267981  0.31390550  0.16143484     0.01200
C562        C  0.10253808  0.27812519  0.15772927     0.04000
C563        C  0.08950906  0.26800022  0.13743729    -0.12100
C564        C  0.08709769  0.29333661  0.12067165     0.23300
C565        C  0.09674166  0.32922859  0.12435897    -0.12600
C566        C  0.10903340  0.33969462  0.14484390     0.04700
C567        C  0.07621499  0.28146435  0.09890638     0.27100
C568        C  0.10124900  0.26469974  0.08550172    -0.13300
C569        C  0.09085549  0.25143247  0.06528128     0.05200
C570        C  0.05482918  0.25319653  0.05878508    -0.09300
C571        C  0.03043283  0.27240678  0.07164988     0.06000
C572        C  0.04102845  0.28618177  0.09178532    -0.13600
Br573      Br  0.09377194  0.36369014  0.10115757    -0.05700
Br574      Br  0.10461095  0.24310644  0.18070245    -0.00100
Br575      Br  0.12682304  0.23204405  0.04659301     0.00400
Br576      Br  0.00760331  0.31165240  0.10971045    -0.04100
Br577      Br  0.12173065  0.38913361  0.14978740     0.00500
Br578      Br  0.07491121  0.21926859  0.13250185    -0.03300
Br579      Br  0.14983990  0.25943629  0.09518095    -0.04200
Br580      Br  0.48364573  0.28311175  0.06094081    -0.00200
C581        C  0.50773384  0.18761938  0.05810023     0.01200
C582        C  0.47091672  0.18852553  0.06277814     0.04000
C583        C  0.45807695  0.17477405  0.08237716    -0.12100
C584        C  0.48173371  0.15982292  0.09742706     0.23300
C585        C  0.51788899  0.15590291  0.09213827    -0.12600
C586        C  0.03074356  0.16916067  0.07232333     0.04700
C587        C  0.46848025  0.14968799  0.11909201     0.27100
C588        C  0.46280602  0.17655677  0.13461646    -0.13300
C589        C  0.44896926  0.16772236  0.15499377     0.05200
C590        C  0.44122907  0.13168912  0.16005564    -0.09300
C591        C  0.44615263  0.10484780  0.14425657     0.06000
C592        C  0.45967604  0.11390756  0.12379624    -0.13600
Br593      Br  0.04951067  0.13192754  0.11200075    -0.05700
Br594      Br  0.43721415  0.20810754  0.04262183    -0.00100
Br595      Br  0.44187935  0.20522832  0.17598544     0.00400
Br596      Br  0.46542508  0.07757713  0.10195973    -0.04100
Br597      Br  0.07878954  0.15858329  0.06393879     0.00500
Br598      Br  0.40786233  0.17654018  0.08888257    -0.03300
Br599      Br  0.97397693  0.22567621  0.12781504    -0.04200
Br600      Br  0.43244524  0.05588250  0.15000329    -0.00200
C601        C  0.24347469  0.44642442  0.47761635     0.01200
C602        C  0.22216526  0.46550756  0.46275134     0.04000
C603        C  0.20961067  0.44866618  0.44388875    -0.12100
C604        C  0.21723123  0.41234880  0.44004656     0.23300
C605        C  0.23742866  0.39284112  0.45510400    -0.12600
C606        C  0.24986576  0.40949806  0.47402583     0.04700
C607        C  0.20365668  0.39467509  0.42020305     0.27100
C608        C  0.16931340  0.37950100  0.41983253    -0.13300
C609        C  0.15541741  0.36551153  0.40045296     0.05200
C610        C  0.17649449  0.36507106  0.38163748    -0.09300
C611        C  0.21154720  0.37883266  0.38235568     0.06000
C612        C  0.22478892  0.39409154  0.40148579    -0.13600
Br613      Br  0.24795757  0.34312106  0.44965981    -0.05700
Br614      Br  0.20633723  0.51320409  0.46919027    -0.00100
Br615      Br  0.10765139  0.34681698  0.39972142     0.00400
Br616      Br  0.27165243  0.41522303  0.40203487    -0.04100
Br617      Br  0.27417789  0.38069218  0.49537734     0.00500
Br618      Br  0.18147415  0.47510375  0.42324066    -0.03300
Br619      Br  0.14151598  0.37790772  0.44597151    -0.04200
Br620      Br  0.24117898  0.37887785  0.35687702    -0.00200
C621        C  0.29987998  0.45783081  0.06506111     0.01200
C622        C  0.27874600  0.43437992  0.07751840     0.04000
C623        C  0.29231083  0.41960541  0.09675474    -0.12100
C624        C  0.32731083  0.42744926  0.10329286     0.23300
C625        C  0.34825515  0.45123433  0.09113452    -0.12600
C626        C  0.33502933  0.46561247  0.07179471     0.04700
C627        C  0.34262437  0.41006283  0.12268188     0.27100
C628        C  0.34032421  0.42734056  0.14275200    -0.13300
C629        C  0.35553330  0.41151964  0.16113259     0.05200
C630        C  0.37319919  0.37829098  0.15951186    -0.09300
C631        C  0.37557556  0.36095309  0.13940737     0.06000
C632        C  0.36042980  0.37694465  0.12094470    -0.13600
Br633      Br  0.39562864  0.46320240  0.10076910    -0.05700
Br634      Br  0.23330184  0.41846422  0.06689699    -0.00100
Br635      Br  0.35117045  0.43514504  0.18870568     0.00400
Br636      Br  0.36446794  0.35397240  0.09319168    -0.04100
Br637      Br  0.36704879  0.49224635  0.05334911     0.00500
Br638      Br  0.26354632  0.38763412  0.11391892    -0.03300
Br639      Br  0.31644410  0.47292818  0.14486753    -0.04200
Br640      Br  0.40034431  0.31595693  0.13715673    -0.00200
C641        C  0.00543976  0.24583152  0.47913352     0.01200
C642        C  0.50983176  0.28190922  0.47262614     0.04000
C643        C  0.49772609  0.29339567  0.45223680    -0.12100
C644        C  0.47978547  0.26943728  0.43851848     0.23300
C645        C  0.47282792  0.23427743  0.44560690    -0.12600
C646        C  0.98559478  0.22250266  0.46580753     0.04700
C647        C  0.46651925  0.28179599  0.41712646     0.27100
C648        C  0.43082327  0.29251395  0.41475740    -0.13300
C649        C  0.41804983  0.30384016  0.39449446     0.05200
C650        C  0.44101489  0.30465391  0.37646885    -0.09300
C651        C  0.47673969  0.29388904  0.37885557     0.06000
C652        C  0.48950443  0.28282940  0.39916547    -0.13600
Br653      Br  0.94420040  0.20289480  0.42795612    -0.05700
Br654      Br  0.53061999  0.31658455  0.49181800    -0.00100
Br655      Br  0.36938153  0.31957186  0.39178360     0.00400
Br656      Br  0.03866794  0.26957401  0.40244477    -0.04100
Br657      Br  0.97262120  0.17557801  0.47599024     0.00500
Br658      Br  0.50460032  0.34243135  0.44323379    -0.03300
Br659      Br  0.39965087  0.29224448  0.43950186    -0.04200
Br660      Br  0.50787863  0.29250820  0.35408465    -0.00200
C661        C  0.42816427  0.81760885  0.35439162     0.80100
N662        N  0.39984219  0.80139741  0.34496350    -0.78200
C663        C  0.38703095  0.81358423  0.32581829     0.82500
N664        N  0.40267865  0.84201717  0.31604911    -0.78200
C665        C  0.43122377  0.85807242  0.32530929     0.82600
N666        N  0.44383986  0.84592746  0.34448369    -0.79900
C667        C  0.38786569  0.86228183  0.18007721     0.80100
N668        N  0.41506924  0.87904030  0.19035345    -0.78200
C669        C  0.42372040  0.86983925  0.21086573     0.82500
N670        N  0.40448798  0.84449521  0.22130039    -0.78200
C671        C  0.37824035  0.82661526  0.21087903     0.82600
N672        N  0.36951194  0.83595674  0.19036370    -0.79900
C673        C  0.16088470  0.85156140  0.36034763     0.80100
N674        N  0.17786981  0.82533593  0.34923590    -0.78200
C675        C  0.16975713  0.81895260  0.32824780     0.82500
N676        N  0.14471163  0.83921440  0.31825435    -0.78200
C677        C  0.12625274  0.86423368  0.32950558     0.82600
N678        N  0.13481202  0.87076990  0.35045196    -0.79900
C679        C  0.42912019  0.62106749  0.18207835     0.80100
N680        N  0.40117885  0.63801903  0.19138756    -0.78200
C681        C  0.39044538  0.62881309  0.21157117     0.82500
N682        N  0.40732455  0.60206026  0.22236838    -0.78200
C683        C  0.43543648  0.58524707  0.21316259     0.82600
N684        N  0.44634460  0.59503001  0.19316147    -0.79900
C685        C  0.44811202  0.88863678  0.31477250     0.42300
N686        N  0.98323879  0.93229737  0.30847627     0.01200
C687        C  0.98585269  0.53811579  0.21688499    -0.06700
H688        H  0.99597873  0.90363255  0.20082724     0.06700
C689        C  0.11265038  0.90374203  0.24566208    -0.07000
Co690      Co  0.46168938  0.97284121  0.26883066     0.74200
N691        N  0.98838088  0.93414383  0.23005342    -0.26200
Co692      Co  0.02915184  0.97168609  0.23091610     0.74100
C693        C  0.10045922  0.88712266  0.22577979     0.42400
N694        N  0.08760563  0.93083287  0.29630810     0.00800
N695        N  0.06713804  0.93169293  0.23265556     0.00900
N696        N  0.44188916  0.53847400  0.24190146    -0.47100
H697        H  0.41403117  0.90102619  0.28484873     0.06700
N698        N  0.46322434  0.93401296  0.24484900     0.01200
N699        N  0.06944834  0.50915989  0.23252770     0.00900
C700        C  0.10766401  0.54924457  0.22406625     0.42500
N701        N  0.06267918  0.93143986  0.31126649    -0.25700
C702        C  0.43779432  0.53695297  0.29653722    -0.06600
N703        N  0.97707934  0.90590104  0.32226144    -0.46800
N704        N  0.07817174  0.53223024  0.21712615    -0.47000
C705        C  0.44756520  0.55202333  0.31731499     0.42300
N706        N  0.46464447  0.51196851  0.24531791     0.01200
N707        N  0.06300646  0.50880975  0.31142909    -0.25700
N708        N  0.45987397  0.93338218  0.29256473    -0.26200
N709        N  0.08841935  0.50875174  0.29672996     0.00800
H710        H  0.05335139  0.54166274  0.33947846     0.06700
H711        H  0.14064397  0.53844886  0.25465665     0.06700
N712        N  0.99044719  0.51125224  0.23088908    -0.26200
N713        N  0.09046755  0.93123585  0.24858112    -0.25800
N714        N  0.98357452  0.50963698  0.30971124     0.01200
C715        C  0.44832312  0.89218074  0.22308751     0.42600
C716        C  0.06988479  0.90582450  0.32592008    -0.07100
N717        N  0.09229083  0.50901682  0.24869407    -0.25800
H718        H  0.13506251  0.89700051  0.25581029     0.06700
N719        N  0.43858576  0.90948353  0.24120061    -0.47100
H720        H  0.05506816  0.90075502  0.34055928     0.06700
C721        C  0.10182563  0.55198702  0.31763628     0.42400
C722        C  0.43652535  0.90665983  0.29516996    -0.06600
Co723      Co  0.02312104  0.97069629  0.31063033     0.73800
N724        N  0.11168947  0.90567754  0.29974286    -0.46800
C725        C  0.45387761  0.55611756  0.22430362     0.42700
N726        N  0.97578272  0.53348357  0.32485336    -0.46800
Co727      Co  0.09053649  0.97016868  0.27252364     0.73900
C728        C  0.11718768  0.53391606  0.24493877    -0.07100
C729        C  0.98094620  0.90891414  0.21533753    -0.06700
N730        N  0.46114416  0.51062174  0.29332278    -0.26200
N731        N  0.07233820  0.90582563  0.21844761    -0.47000
H732        H  0.00236395  0.54372689  0.20300166     0.06700
C733        C  0.06925371  0.53532975  0.32547163    -0.07100
Cl734      Cl  0.02613427  0.97147170  0.27073840    -0.50100
C735        C  0.10211358  0.88842481  0.31794413     0.42500
H736        H  0.41514150  0.54290841  0.28639230     0.06700
N737        N  0.11226347  0.53423130  0.29985141    -0.46800
C738        C  0.12429455  0.82271079  0.18319101     0.80100
N739        N  0.15224438  0.80551438  0.19253529    -0.78200
C740        C  0.16287911  0.81473323  0.21270718     0.82500
N741        N  0.14577270  0.84118057  0.22337186    -0.78200
C742        C  0.11788142  0.85818869  0.21419330     0.82600
N743        N  0.10705027  0.84890556  0.19411753    -0.79900
C744        C  0.39020939  0.58824872  0.36049081     0.80100
N745        N  0.37254442  0.61410687  0.34931068    -0.78200
C746        C  0.38096678  0.62103347  0.32841591     0.82500
N747        N  0.40644186  0.60146853  0.31859451    -0.78200
C748        C  0.42490750  0.57632337  0.32964690     0.82600
N749        N  0.41638900  0.56922327  0.35056523    -0.79900
C750        C  0.13090947  0.62218880  0.35559755     0.80100
N751        N  0.15780844  0.63733960  0.34434829    -0.78200
C752        C  0.16685428  0.62460166  0.32468056     0.82500
N753        N  0.14883346  0.59665333  0.31609981    -0.78200
C754        C  0.12146960  0.58168178  0.32715618     0.82600
N755        N  0.11251890  0.59440882  0.34692922    -0.79900
C756        C  0.15896463  0.58245272  0.17711076     0.80100
N757        N  0.17976042  0.60773867  0.18675400    -0.78200
C758        C  0.17627264  0.61464542  0.20820892     0.82500
N759        N  0.15263274  0.59562189  0.22009409    -0.78200
C760        C  0.13092561  0.57140083  0.21056573     0.82600
N761        N  0.13417199  0.56475860  0.18908890    -0.79900
C762        C  0.35499229  0.80296310  0.22326199     0.42300
N763        N  0.31375165  0.76525294  0.23023549     0.01200
C764        C  0.21029746  0.76267608  0.32319679    -0.06700
H765        H  0.34556241  0.74641221  0.33686974     0.06700
C766        C  0.34325190  0.63302400  0.29431037    -0.07000
Co767      Co  0.27447128  0.78556970  0.27035260     0.74200
N768        N  0.31300388  0.75798724  0.30905037    -0.26200
Co769      Co  0.27557217  0.71754139  0.30803397     0.74100
C770        C  0.35790525  0.64356909  0.31511765     0.42400
N771        N  0.31745993  0.65958000  0.24271800     0.00800
N772        N  0.31517042  0.67878500  0.30696388     0.00900
N773        N  0.20960299  0.80577094  0.29756928    -0.47100
H774        H  0.34354712  0.83526039  0.25397265     0.06700
N775        N  0.31309881  0.78407765  0.29467519     0.01200
N776        N  0.23834629  0.67715797  0.30588956     0.00900
C777        C  0.19585064  0.64145477  0.31298696     0.42500
N778        N  0.31656034  0.68527434  0.22804928    -0.25700
C779        C  0.20943737  0.80840228  0.24324387    -0.06600
N780        N  0.33776394  0.77401550  0.21546864    -0.46800
N781        N  0.21288460  0.67083364  0.32002508    -0.47000
C782        C  0.19285065  0.79701711  0.22323914     0.42300
N783        N  0.23502110  0.78204074  0.29392095     0.01200
N784        N  0.23978483  0.68178657  0.22717535    -0.25700
N785        N  0.31334500  0.78775954  0.24664363    -0.26200
N786        N  0.24001846  0.65650236  0.24210388     0.00800
H787        H  0.21094477  0.68742462  0.19712115     0.06700
H788        H  0.20750923  0.60661766  0.28318951     0.06700
N789        N  0.23596121  0.75651161  0.30862767    -0.26200
N790        N  0.31665825  0.65602287  0.29073121    -0.25800
N791        N  0.23651249  0.76231788  0.23005826     0.01200
C792        C  0.35638556  0.79601824  0.31586899     0.42600
C793        C  0.34301600  0.67999510  0.21392602    -0.07100
N794        N  0.23925774  0.65346670  0.29012078    -0.25800
H795        H  0.34964149  0.61008786  0.28442659     0.06700
N796        N  0.33884503  0.80764093  0.29815620    -0.47100
H797        H  0.34849652  0.69616673  0.19981830     0.06700
C798        C  0.20081179  0.63896006  0.21935640     0.42400
C799        C  0.33879241  0.81229034  0.24376785    -0.06600
Co800      Co  0.27656192  0.72379647  0.22837367     0.73800
N801        N  0.34354248  0.63646920  0.23946899    -0.46800
C802        C  0.19242161  0.79500060  0.31556605     0.42700
N803        N  0.21092189  0.76839476  0.21576531    -0.46800
Co804      Co  0.27838185  0.65574216  0.26640335     0.73900
C805        C  0.21306599  0.62963603  0.29319315    -0.07100
C806        C  0.33933559  0.76329506  0.32319235    -0.06700
N807        N  0.23626236  0.78554049  0.24612412    -0.26200
N808        N  0.33878600  0.67165457  0.32227629    -0.47000
H809        H  0.20560306  0.74723070  0.33769414     0.06700
C810        C  0.21597047  0.67282005  0.21188833    -0.07100
Cl811      Cl  0.27621800  0.72065613  0.26825959    -0.50100
C812        C  0.36076532  0.64772639  0.22164320     0.42500
H813        H  0.20311497  0.83085069  0.25353764     0.06700
N814        N  0.21710079  0.63047971  0.23804982    -0.46800
C815        C  0.25466771  0.96416306  0.49752443     0.02100
C816        C  0.28311598  0.98933437  0.49843882     0.02100
C817        C  0.29681351  0.99937712  0.51873325    -0.18400
C818        C  0.28309852  0.98520768  0.53806884     0.02100
C819        C  0.25333414  0.96183466  0.53709939     0.02100
C820        C  0.23934756  0.95220406  0.51694089    -0.18400
H821        H  0.21735941  0.93341366  0.51633506     0.04100
H822        H  0.32029982  0.51878319  0.51905286     0.04100
C823        C  0.04460022  0.73258326  0.03829005     0.02100
C824        C  0.02247319  0.70169236  0.03781595     0.02100
C825        C  0.51200935  0.68767331  0.01773815    -0.18400
C826        C  0.02234067  0.70376317  0.99821581     0.02100
C827        C  0.04559340  0.73370854  0.99871925     0.02100
C828        C  0.05577955  0.74799924  0.01873789    -0.18400
H829        H  0.07296408  0.77133247  0.01909604     0.04100
H830        H  0.49496353  0.66424792  0.01729420     0.04100
C831        C  0.05001836  0.71060649  0.50022570     0.02100
C832        C  0.02075988  0.73462852  0.49931207     0.00900
C833        C  0.00518517  0.74611240  0.51872110    -0.18400
C834        C  0.01783965  0.73449132  0.53893570     0.02100
C835        C  0.04620254  0.70939575  0.53980134     0.02100
C836        C  0.06231636  0.69858233  0.52042197    -0.18400
H837        H  0.08454647  0.68012208  0.52106436     0.04100
H838        H  0.48308555  0.76473686  0.51810923     0.04100
C839        C  0.26543951  0.99486543  0.03825049     0.02100
C840        C  0.28959315  0.96675293  0.04351653     0.02100
C841        C  0.30611598  0.94797737  0.02688264    -0.18400
C842        C  0.30219570  0.95945572  0.00581266     0.02100
C843        C  0.28099562  0.98757853  0.99983564     0.02100
C844        C  0.26067569  0.00422180  0.01625643    -0.18400
H845        H  0.24126576  0.52556512  0.01103682     0.04100
H846        H  0.32311389  0.92509427  0.03041091     0.04100
C847        C  0.37045039  0.87416312  0.85210337     0.80100
N848        N  0.35581805  0.84578779  0.84163290    -0.78200
C849        C  0.37114818  0.83259236  0.82346043     0.82500
N850        N  0.40103349  0.84805297  0.81555856    -0.78200
C851        C  0.41563551  0.87659733  0.82573571     0.82600
N852        N  0.40049236  0.88943781  0.84407327    -0.79900
C853        C  0.41811666  0.60313911  0.86097658     0.80100
N854        N  0.39159217  0.62110701  0.85058793    -0.78200
C855        C  0.38287778  0.61238321  0.82995155     0.82500
N856        N  0.40156156  0.58663465  0.81960936    -0.78200
C857        C  0.42730581  0.56800795  0.82996249     0.82600
N858        N  0.43587152  0.57658696  0.85058702    -0.79900
C859        C  0.18806470  0.56142966  0.85421181     0.80100
N860        N  0.16006410  0.54489337  0.84438740    -0.78200
C861        C  0.14545371  0.55926506  0.82614250     0.82500
N862        N  0.15943513  0.58954345  0.81743970    -0.78200
C863        C  0.18731272  0.60588317  0.82708303     0.82600
N864        N  0.20088848  0.59212668  0.84550219    -0.79900
C865        C  0.15071232  0.83378545  0.86160988     0.80100
N866        N  0.13181465  0.85969666  0.85137550    -0.78200
C867        C  0.13775654  0.86682753  0.83019886     0.82500
N868        N  0.16198736  0.84727005  0.81908388    -0.78200
C869        C  0.18198218  0.82233261  0.82939244     0.82600
N870        N  0.17600839  0.81536271  0.85059872    -0.79900
C871        C  0.14116033  0.60561936  0.67937358     0.80100
N872        N  0.16729276  0.62373198  0.68995632    -0.78200
C873        C  0.17524491  0.61528766  0.71077268     0.82500
N874        N  0.15642757  0.58946436  0.72108223    -0.78200
C875        C  0.13124697  0.57049846  0.71045234     0.82600
N876        N  0.12328345  0.57892200  0.68968221    -0.79900
C877        C  0.37568384  0.55581072  0.68522826     0.80100
N878        N  0.40339789  0.54039742  0.69562854    -0.78200
C879        C  0.41506071  0.55355189  0.71475811     0.82500
N880        N  0.39882260  0.58241788  0.72364317    -0.78200
C881        C  0.37073722  0.59794839  0.71347955     0.82600
N882        N  0.35936235  0.58474022  0.69415783    -0.79900
C883        C  0.35634075  0.80080311  0.81298791     0.42300
N884        N  0.32359810  0.75518507  0.80709901     0.01200
C885        C  0.32147065  0.64765980  0.71553179    -0.06700
H886        H  0.31531648  0.78131322  0.69826355     0.06700
C887        C  0.19591585  0.78446719  0.74395042    -0.07000
Co888      Co  0.34596928  0.71397349  0.76779707     0.74200
N889        N  0.32067750  0.75223565  0.72832143    -0.26200
Co890      Co  0.27893631  0.71545837  0.72941028     0.74100
C891        C  0.20795976  0.80133349  0.72408324     0.42400
N892        N  0.21990873  0.75752562  0.79477586     0.00800
N893        N  0.24110352  0.75623269  0.73082851     0.00900
N894        N  0.36482583  0.64693952  0.74091262    -0.47100
H895        H  0.39170168  0.78873553  0.78352816     0.06700
N896        N  0.34546698  0.75220467  0.74339678     0.01200
N897        N  0.23745800  0.67838357  0.73099949     0.00900
C898        C  0.19911711  0.63795855  0.72344544     0.42500
N899        N  0.24489187  0.75640314  0.80969414    -0.25700
C900        C  0.36935076  0.64995102  0.79602688    -0.06600
N901        N  0.32802353  0.78251394  0.82037546    -0.46800
N902        N  0.22841698  0.65479812  0.71597295    -0.47000
C903        C  0.35968196  0.63557114  0.81703491     0.42300
N904        N  0.34244853  0.67387149  0.74403570     0.01200
N905        N  0.24369479  0.67921348  0.80997407    -0.25700
N906        N  0.34735290  0.75425989  0.79141204    -0.26200
N907        N  0.21794733  0.67923987  0.79546987     0.00800
H908        H  0.25370780  0.64748057  0.83840278     0.06700
H909        H  0.16688690  0.64948585  0.75412093     0.06700
N910        N  0.31688498  0.67481268  0.72939564    -0.26200
N911        N  0.21783513  0.75677303  0.74680336    -0.25800
N912        N  0.32323834  0.67735506  0.80860190     0.01200
C913        C  0.36286634  0.79189792  0.72082323     0.42600
C914        C  0.23795701  0.78147596  0.82459526    -0.07100
N915        N  0.21488476  0.67892841  0.74730428    -0.25800
H916        H  0.17374162  0.79133878  0.75423049     0.06700
N917        N  0.37116882  0.77550128  0.73952076    -0.47100
H918        H  0.25276531  0.78576311  0.83932530     0.06700
C919        C  0.20457643  0.63690816  0.81722700     0.42400
C920        C  0.36946484  0.78220313  0.79385869    -0.06600
Co921      Co  0.28398715  0.71696118  0.80924224     0.73800
N922        N  0.19578671  0.78252070  0.79860173    -0.46800
C923        C  0.35316388  0.62921862  0.72324255     0.42700
N924        N  0.33126048  0.65421981  0.82418032    -0.46800
Co925      Co  0.21698653  0.71806230  0.77106693     0.73900
C926        C  0.19003693  0.65387913  0.74411182    -0.07100
C927        C  0.32963591  0.77628708  0.71309062    -0.06700
N928        N  0.34577242  0.67595081  0.79230914    -0.26200
N929        N  0.23597847  0.78243954  0.71665003    -0.47000
H930        H  0.30506905  0.64203083  0.70161080     0.06700
C931        C  0.23750986  0.65339510  0.82443486    -0.07100
Cl932      Cl  0.28147571  0.71601446  0.76936736    -0.50100
C933        C  0.20574567  0.79914368  0.81695606     0.42500
H934        H  0.39227157  0.64404154  0.78613151     0.06700
N935        N  0.19382586  0.65405345  0.79916897    -0.46800
C936        C  0.42104681  0.83114307  0.67887436     0.80100
N937        N  0.43877845  0.85615538  0.69060896    -0.78200
C938        C  0.43111897  0.86085797  0.71180917     0.82500
N939        N  0.40616568  0.84005356  0.72137070    -0.78200
C940        C  0.38731639  0.81606345  0.70962323     0.82600
N941        N  0.39509394  0.81122612  0.68840574    -0.79900
C942        C  0.18250397  0.87045706  0.68376173     0.80100
N943        N  0.15542561  0.88686861  0.69443626    -0.78200
C944        C  0.14590150  0.87567793  0.71449231     0.82500
N945        N  0.16349848  0.84814370  0.72378991    -0.78200
C946        C  0.19067009  0.83175985  0.71343389     0.82600
N947        N  0.20017191  0.84279225  0.69330555    -0.79900
C948        C  0.45334500  0.88414268  0.72509117     0.42300
N949        N  0.49390609  0.92201220  0.73303696     0.01200
C950        C  0.09597999  0.92271447  0.82651184    -0.06700
H951        H  0.45862681  0.94241146  0.83828066     0.06700
C952        C  0.46596250  0.55503089  0.79658827    -0.07000
Co953      Co  0.03260170  0.90127921  0.77318811     0.74200
N954        N  0.49323631  0.92957851  0.81161162    -0.26200
Co955      Co  0.03164884  0.96933094  0.81128076     0.74100
C956        C  0.45068052  0.54495952  0.81727176     0.42400
N957        N  0.49085286  0.52754059  0.74548097     0.00800
N958        N  0.49300610  0.50886319  0.80974587     0.00900
N959        N  0.09671061  0.88058938  0.80036131    -0.47100
H960        H  0.46414315  0.85093311  0.75567333     0.06700
N961        N  0.49333325  0.90352275  0.79722406     0.01200
N962        N  0.07042718  0.50843865  0.80907792     0.00900
C963        C  0.11471525  0.54259974  0.81557358     0.42500
N964        N  0.49158031  0.50143747  0.73114892    -0.25700
C965        C  0.09930349  0.87923972  0.74586310    -0.06600
N966        N  0.47053260  0.91351346  0.71787850    -0.46800
N967        N  0.09684156  0.51374446  0.82289010    -0.47000
C968        C  0.11586296  0.89195649  0.72594109     0.42300
N969        N  0.07137253  0.90444472  0.79697223     0.01200
N970        N  0.06842334  0.50416159  0.73023894    -0.25700
N971        N  0.49403813  0.89906962  0.74923439    -0.26200
N972        N  0.06881619  0.52934314  0.74513801     0.00800
H973        H  0.09720120  0.49769063  0.70030731     0.06700
H974        H  0.10309842  0.57758743  0.78573968     0.06700
N975        N  0.07042842  0.92950576  0.81192526    -0.26200
N976        N  0.49216700  0.53151679  0.79339982    -0.25800
N977        N  0.07107054  0.92494635  0.73313518     0.01200
C978        C  0.44796216  0.89308275  0.81710889     0.42600
C979        C  0.46420862  0.50513790  0.71759811    -0.07100
N980        N  0.06979863  0.53215940  0.79323158    -0.25800
H981        H  0.46012997  0.57790797  0.78646617     0.06700
N982        N  0.46645557  0.88099615  0.79992116    -0.47100
H983        H  0.45822281  0.48792103  0.70406146     0.06700
C984        C  0.10880941  0.54558595  0.72256863     0.42400
C985        C  0.46891846  0.87433353  0.74578445    -0.06600
Co986      Co  0.03112506  0.96314330  0.73166244     0.73800
N987        N  0.46369935  0.54962758  0.74243466    -0.46800
C988        C  0.11370981  0.89064147  0.81849466     0.42700
N989        N  0.09687768  0.92020371  0.71887271    -0.46800
Co990      Co  0.03039486  0.53092195  0.76928354     0.73900
C991        C  0.09689205  0.55499485  0.79600546    -0.07100
C992        C  0.46557613  0.92516390  0.82494618    -0.06700
N993        N  0.07167819  0.90127450  0.74900155    -0.26200
N994        N  0.46917477  0.51659830  0.82481784    -0.47000
H995        H  0.10095141  0.93783637  0.84106802     0.06700
C996        C  0.09258219  0.51237905  0.71505629    -0.07100
Cl997      Cl  0.03136917  0.96626390  0.77144203    -0.50100
C998        C  0.44580216  0.53685171  0.72515909     0.42500
H999        H  0.10638093  0.85670442  0.75595760     0.06700
N1000       N  0.09247444  0.55469961  0.74110495    -0.46800
C1001       C  0.20551814  0.54701090  0.87412840     0.01200
C1002       C  0.24236648  0.55340701  0.87737173     0.04000
C1003       C  0.25794929  0.54757878  0.89764791    -0.12100
C1004       C  0.23907493  0.52902673  0.91379411     0.23300
C1005       C  0.20268407  0.52140614  0.91061276    -0.12600
C1006       C  0.18574342  0.53077168  0.89102756     0.04700
C1007       C  0.25740955  0.51766854  0.93416698     0.27100
C1008       C  0.26783754  0.98121127  0.93838233    -0.13300
C1009       C  0.28762374  0.97032904  0.95815077     0.05200
C1010       C  0.27961781  0.99697500  0.97585514    -0.09300
C1011       C  0.27512185  0.53355949  0.97003900     0.06000
C1012       C  0.26198257  0.54349955  0.95012346    -0.13600
Br1013     Br  0.17573503  0.49998539  0.93384715    -0.05700
Br1014     Br  0.27347901  0.56702944  0.85383325    -0.00100
Br1015     Br  0.34787738  0.89337376  0.96744468     0.00400
Br1016     Br  0.24501692  0.59198479  0.94602889    -0.04100
Br1017     Br  0.13537995  0.52197321  0.88823394     0.00500
Br1018     Br  0.30335707  0.56968320  0.90387805    -0.03300
Br1019     Br  0.25015316  0.94967407  0.91561990    -0.04200
Br1020     Br  0.28999727  0.57077117  0.98986190    -0.00200
C1021       C  0.35516847  0.88675381  0.87290099     0.01200
C1022       C  0.34717797  0.92304516  0.87603020     0.04000
C1023       C  0.33472348  0.93526161  0.89621959    -0.12100
C1024       C  0.32851253  0.91126980  0.91379430     0.23300
C1025       C  0.33570760  0.87401187  0.90994235    -0.12600
C1026       C  0.34965562  0.86244195  0.88991269     0.04700
C1027       C  0.31870709  0.92594345  0.93617667     0.27100
C1028       C  0.34669378  0.95319621  0.94775097    -0.13300
C1029       C  0.34486351  0.96042870  0.97336739     0.05200
C1030       C  0.31476022  0.94051357  0.98788029    -0.09300
C1031       C  0.28563778  0.91462867  0.97660868     0.06000
C1032       C  0.28746516  0.90724577  0.95100312    -0.13600
Br1033     Br  0.32952208  0.83632053  0.93103494    -0.05700
Br1034     Br  0.35276564  0.95629566  0.85221044    -0.00100
Br1035     Br  0.37708720  0.99354822  0.98670205     0.00400
Br1036     Br  0.25284871  0.87356034  0.93992126    -0.04100
Br1037     Br  0.36470972  0.81308180  0.88630961     0.00500
Br1038     Br  0.32703141  0.98573131  0.89876010    -0.03300
Br1039     Br  0.39053775  0.96661369  0.93390274    -0.04200
Br1040     Br  0.24726349  0.89570733  0.99359674    -0.00200
C1041       C  0.05931711  0.69311107  0.56043758     0.01200
C1042       C  0.08442061  0.71121568  0.57342208     0.04000
C1043       C  0.09718276  0.69541812  0.59259842    -0.12100
C1044       C  0.08638551  0.66064765  0.59848452     0.23300
C1045       C  0.06298006  0.64159969  0.58500743    -0.12600
C1046       C  0.04959446  0.65764628  0.56604926     0.04700
C1047       C  0.09976855  0.64441648  0.61891325     0.27100
C1048       C  0.13307950  0.62707657  0.61951691    -0.13300
C1049       C  0.14700295  0.61467725  0.63932008     0.05200
C1050       C  0.12752141  0.61920996  0.65851459    -0.09300
C1051       C  0.09432750  0.63672722  0.65789291     0.06000
C1052       C  0.08012833  0.64848645  0.63809763    -0.13600
Br1053     Br  0.04999396  0.59312387  0.59242660    -0.05700
Br1054     Br  0.10461171  0.75582732  0.56398926    -0.00100
Br1055     Br  0.19283675  0.59186356  0.64032067     0.00400
Br1056     Br  0.03352589  0.66989834  0.63715075    -0.04100
Br1057     Br  0.01963255  0.62974811  0.54730583     0.00500
Br1058     Br  0.13016980  0.72108072  0.61078872    -0.03300
Br1059     Br  0.15929147  0.62003056  0.59313540    -0.04200
Br1060     Br  0.06948913  0.64713279  0.68441471    -0.00200
C1061       C  0.43497215  0.82046280  0.65756352     0.01200
C1062       C  0.46875169  0.80413236  0.65627016     0.04000
C1063       C  0.48153770  0.79170166  0.63633743    -0.12100
C1064       C  0.46054116  0.79516635  0.61763448     0.23300
C1065       C  0.42711196  0.81212817  0.61879836    -0.12600
C1066       C  0.41437353  0.82483634  0.63875220     0.04700
C1067       C  0.47362811  0.78042122  0.59687365     0.27100
C1068       C  0.49755188  0.80029936  0.58416919    -0.13300
C1069       C  0.51139026  0.78556051  0.56506598     0.05200
C1070       C  0.00191950  0.75046815  0.55873062    -0.09300
C1071       C  0.97552988  0.73201966  0.57052080     0.06000
C1072       C  0.46226687  0.74643947  0.58988708    -0.13600
Br1073     Br  0.39884081  0.81769016  0.59302969    -0.05700
Br1074     Br  0.49701154  0.79701336  0.68197999    -0.00100
Br1075     Br  0.54137454  0.81483052  0.54704705     0.00400
Br1076     Br  0.42839544  0.71977040  0.60693027    -0.04100
Br1077     Br  0.36920743  0.84901311  0.64030585     0.00500
Br1078     Br  0.02769644  0.76934206  0.63461326    -0.03300
Br1079     Br  0.51109238  0.84793492  0.59299409    -0.04200
Br1080     Br  0.95408585  0.68947742  0.55894128    -0.00200
C1081       C  0.13750615  0.81968335  0.88235305     0.01200
C1082       C  0.12072335  0.78586042  0.88273598     0.04000
C1083       C  0.10662406  0.77241782  0.90209578    -0.12100
C1084       C  0.10716665  0.79357153  0.92084726     0.23300
C1085       C  0.12350029  0.82756452  0.92048257    -0.12600
C1086       C  0.13919869  0.84037687  0.90131320     0.04700
C1087       C  0.09151875  0.77935839  0.94107494     0.27100
C1088       C  0.05610551  0.78722798  0.94659976    -0.13300
C1089       C  0.04159725  0.77376756  0.96592368     0.05200
C1090       C  0.06127105  0.74966454  0.97879809    -0.09300
C1091       C  0.09718695  0.74282207  0.97347220     0.06000
C1092       C  0.11226836  0.75789246  0.95479442    -0.13600
Br1093     Br  0.12457594  0.85619238  0.94634546    -0.05700
Br1094     Br  0.11484175  0.75865875  0.85646385    -0.00100
Br1095     Br  0.99709992  0.79250098  0.97601735     0.00400
Br1096     Br  0.16163122  0.74956281  0.94791213    -0.04100
Br1097     Br  0.16387964  0.88562131  0.90112063     0.00500
Br1098     Br  0.08719844  0.72462995  0.90312055    -0.03300
Br1099     Br  0.02764748  0.81659884  0.92766520    -0.04200
Br1100     Br  0.12684046  0.71435070  0.99208137    -0.00200
C1101       C  0.50822285  0.68853041  0.97768374     0.01200
C1102       C  0.02860209  0.66387905  0.96571748     0.04000
C1103       C  0.01569818  0.65031634  0.94601042    -0.12100
C1104       C  0.48122204  0.65917124  0.93897109     0.23300
C1105       C  0.45980010  0.68170285  0.95159975    -0.12600
C1106       C  0.47312342  0.69625498  0.97089452     0.04700
C1107       C  0.46653401  0.64383383  0.91875959     0.27100
C1108       C  0.46775722  0.66385466  0.89950235    -0.13300
C1109       C  0.45160266  0.65056153  0.88067379     0.05200
C1110       C  0.43324817  0.61758481  0.88116709    -0.09300
C1111       C  0.43221193  0.59746501  0.90040506     0.06000
C1112       C  0.44908834  0.61041361  0.91913834    -0.13600
Br1113     Br  0.41169298  0.69187018  0.94249841    -0.05700
Br1114     Br  0.07186436  0.64483419  0.97761080    -0.00100
Br1115     Br  0.45618751  0.67686482  0.85394397     0.00400
Br1116     Br  0.44818666  0.58264142  0.94542504    -0.04100
Br1117     Br  0.44173128  0.72443595  0.98846752     0.00500
Br1118     Br  0.04495543  0.61923053  0.92872551    -0.03300
Br1119     Br  0.49132859  0.70971116  0.89907583    -0.04200
Br1120     Br  0.40687055  0.55269407  0.90117789    -0.00200
C1121       C  0.30026197  0.99496038  0.55910943     0.01200
C1122       C  0.28478308  0.51795891  0.57380111     0.04000
C1123       C  0.29917055  0.52416739  0.59443977    -0.12100
C1124       C  0.33165862  0.50837310  0.60053061     0.23300
C1125       C  0.34813065  0.98714903  0.58564029    -0.12600
C1126       C  0.33416348  0.98136560  0.56474468     0.04700
C1127       C  0.34736579  0.51755381  0.62193293     0.27100
C1128       C  0.36591209  0.55011999  0.62436810    -0.13300
C1129       C  0.37480286  0.56271227  0.64509593     0.05200
C1130       C  0.36556591  0.54263252  0.66354382    -0.09300
C1131       C  0.34925974  0.50884045  0.66104458     0.06000
C1132       C  0.34031014  0.49626939  0.64026283    -0.13600
Br1133     Br  0.39264466  0.96565265  0.59397907    -0.05700
Br1134     Br  0.24262644  0.54327275  0.56507042    -0.00100
Br1135     Br  0.40040681  0.60718507  0.64822063     0.00400
Br1136     Br  0.31817042  0.94964255  0.63651202    -0.04100
Br1137     Br  0.36293240  0.95723348  0.54347685     0.00500
Br1138     Br  0.27472163  0.55504234  0.61444546    -0.03300
Br1139     Br  0.37905819  0.57743794  0.59914375    -0.04200
Br1140     Br  0.33813785  0.48032859  0.68614156    -0.00200
C1141       C  0.19141481  0.88193890  0.66154119     0.01200
C1142       C  0.18447019  0.85913671  0.64389142     0.04000
C1143       C  0.19026952  0.87127780  0.62262277    -0.12100
C1144       C  0.20379796  0.90598060  0.61892283     0.23300
C1145       C  0.21036240  0.92883933  0.63656494    -0.12600
C1146       C  0.20469490  0.91668648  0.65780349     0.04700
C1147       C  0.21404075  0.91750167  0.59676720     0.27100
C1148       C  0.24593235  0.90478263  0.58768453    -0.13300
C1149       C  0.25737871  0.91762379  0.56753170     0.05200
C1150       C  0.23820433  0.94475410  0.55683450    -0.09300
C1151       C  0.20446400  0.95477329  0.56481372     0.06000
C1152       C  0.19264187  0.94152117  0.58491294    -0.13600
Br1153     Br  0.22669443  0.97707174  0.63160649    -0.05700
Br1154     Br  0.16667350  0.81135345  0.64878644    -0.00100
Br1155     Br  0.29722685  0.89519950  0.55361006     0.00400
Br1156     Br  0.14736404  0.95639511  0.59638364    -0.04100
Br1157     Br  0.21727549  0.94688184  0.68186736     0.00500
Br1158     Br  0.17908650  0.84072272  0.59845374    -0.03300
Br1159     Br  0.27441528  0.87004985  0.60300070    -0.04200
Br1160     Br  0.17368554  0.98519933  0.54789893    -0.00200
C1161       C  0.24417633  0.51465077  0.05471144     0.01200
C1162       C  0.20754221  0.50798505  0.05794691     0.04000
C1163       C  0.19034461  0.52085367  0.07669265    -0.12100
C1164       C  0.20976549  0.53981764  0.09248354     0.23300
C1165       C  0.24554520  0.54875718  0.08835991    -0.12600
C1166       C  0.26186477  0.53795539  0.06899508     0.04700
C1167       C  0.19295045  0.55009269  0.11346368     0.27100
C1168       C  0.18212725  0.58569947  0.11725766    -0.13300
C1169       C  0.16910822  0.59587331  0.13772334     0.05200
C1170       C  0.16716671  0.57064966  0.15468457    -0.09300
C1171       C  0.17619591  0.53450737  0.15049722     0.06000
C1172       C  0.18911181  0.52439796  0.13001393    -0.13600
Br1173     Br  0.27284719  0.57457929  0.10962081    -0.05700
Br1174     Br  0.18132622  0.98337294  0.03723858    -0.00100
Br1175     Br  0.15261621  0.64414820  0.14230616     0.00400
Br1176     Br  0.21366665  0.97959697  0.12609044    -0.04100
Br1177     Br  0.30648394  0.55888957  0.06071123     0.00500
Br1178     Br  0.14031302  0.51219614  0.08104921    -0.03300
Br1179     Br  0.18579849  0.62070666  0.09444078    -0.04200
Br1180     Br  0.17314292  0.49869854  0.17299122    -0.00200
C1181       C  0.06774945  0.69738330  0.48024752     0.01200
C1182       C  0.08786737  0.72098835  0.46728382     0.04000
C1183       C  0.09916792  0.71036415  0.44663399    -0.12100
C1184       C  0.09261968  0.67522018  0.43954932     0.23300
C1185       C  0.07692558  0.65020907  0.45359803    -0.12600
C1186       C  0.06455600  0.66115961  0.47392407     0.04700
C1187       C  0.10322148  0.66381244  0.41763881     0.27100
C1188       C  0.07775372  0.66281198  0.40097558    -0.13300
C1189       C  0.08699000  0.64971416  0.38052917     0.05200
C1190       C  0.12148419  0.63648373  0.37690732    -0.09300
C1191       C  0.14716074  0.63776835  0.39352954     0.06000
C1192       C  0.13803052  0.65162419  0.41385074    -0.13600
Br1193     Br  0.07290799  0.60072920  0.44490056    -0.05700
Br1194     Br  0.10429910  0.76572070  0.47891843    -0.00100
Br1195     Br  0.05280660  0.65147937  0.35724614     0.00400
Br1196     Br  0.17272580  0.65290243  0.43680932    -0.04100
Br1197     Br  0.04449374  0.62576536  0.49298448     0.00500
Br1198     Br  0.12421829  0.74355327  0.42819453    -0.03300
Br1199     Br  0.02985770  0.67825380  0.40636114    -0.04200
Br1200     Br  0.19438138  0.61905972  0.38893349    -0.00200
C1201       C  0.37505061  0.57521683  0.38108014     0.01200
C1202       C  0.34257455  0.55624739  0.38074233     0.04000
C1203       C  0.32707824  0.54428257  0.40012947    -0.12100
C1204       C  0.34432404  0.55044063  0.41996366     0.23300
C1205       C  0.37656525  0.56984318  0.42035563    -0.12600
C1206       C  0.39210327  0.58187607  0.40091099     0.04700
C1207       C  0.32930716  0.53506759  0.44022563     0.27100
C1208       C  0.30752572  0.55591451  0.45372826    -0.13300
C1209       C  0.29385554  0.54131938  0.47304074     0.05200
C1210       C  0.29956190  0.00535595  0.47868461    -0.09300
C1211       C  0.32240558  0.98491823  0.46552146     0.06000
C1212       C  0.33696388  0.99981029  0.44656772    -0.13600
Br1213     Br  0.39893837  0.58049268  0.44760830    -0.05700
Br1214     Br  0.32000958  0.54516736  0.35353671    -0.00100
Br1215     Br  0.26758824  0.57175359  0.49249543     0.00400
Br1216     Br  0.36742489  0.97131996  0.42838305    -0.04100
Br1217     Br  0.43664729  0.60741036  0.40133743     0.00500
Br1218     Br  0.28180726  0.51996605  0.39965781    -0.03300
Br1219     Br  0.29619940  0.60440399  0.44549293    -0.04200
Br1220     Br  0.33689656  0.93781323  0.47450057    -0.00200
C1221       C  0.11187808  0.81225255  0.16158586     0.01200
C1222       C  0.10106581  0.77668608  0.15787864     0.04000
C1223       C  0.08895101  0.76652625  0.13737936    -0.12100
C1224       C  0.08776187  0.79170104  0.12046468     0.23300
C1225       C  0.09832825  0.82735288  0.12412555    -0.12600
C1226       C  0.11012137  0.83775121  0.14474374     0.04700
C1227       C  0.07730805  0.77973146  0.09861205     0.27100
C1228       C  0.10236066  0.76215444  0.08559657    -0.13300
C1229       C  0.09206619  0.74788294  0.06558878     0.05200
C1230       C  0.05615540  0.74978248  0.05885416    -0.09300
C1231       C  0.03181408  0.76986264  0.07126108     0.06000
C1232       C  0.04228610  0.78450549  0.09119973    -0.13600
Br1233     Br  0.09757205  0.86148301  0.10070256    -0.05700
Br1234     Br  0.10141664  0.74197772  0.18104845    -0.00100
Br1235     Br  0.12799201  0.72691010  0.04750235     0.00400
Br1236     Br  0.00889797  0.81129338  0.10842238    -0.04100
Br1237     Br  0.12530055  0.88650635  0.14953456     0.00500
Br1238     Br  0.07436096  0.71783841  0.13230552    -0.03300
Br1239     Br  0.15084769  0.75729314  0.09552703    -0.04200
Br1240     Br  0.48519824  0.78034170  0.06017962    -0.00200
C1241       C  0.50831989  0.68461494  0.05790685     0.01200
C1242       C  0.47146951  0.68586501  0.06250065     0.04000
C1243       C  0.45838196  0.67248848  0.08212876    -0.12100
C1244       C  0.48182857  0.65776800  0.09736879     0.23300
C1245       C  0.51802294  0.65362633  0.09225672    -0.12600
C1246       C  0.03106713  0.66618693  0.07231936     0.04700
C1247       C  0.46829463  0.64802813  0.11902489     0.27100
C1248       C  0.46211711  0.67520294  0.13427791    -0.13300
C1249       C  0.44809470  0.66667930  0.15465795     0.05200
C1250       C  0.44097699  0.63062650  0.16006512    -0.09300
C1251       C  0.44643816  0.60346748  0.14451564     0.06000
C1252       C  0.45978387  0.61226976  0.12397546    -0.13600
Br1253     Br  0.04948612  0.63055400  0.11261444    -0.05700
Br1254     Br  0.43798543  0.70555693  0.04226756    -0.00100
Br1255     Br  0.43991474  0.70471616  0.17514789     0.00400
Br1256     Br  0.46552671  0.57563072  0.10231664    -0.04100
Br1257     Br  0.07884897  0.65439210  0.06401810     0.00500
Br1258     Br  0.40811957  0.67469131  0.08848294    -0.03300
Br1259     Br  0.97285873  0.72432155  0.12708013    -0.04200
Br1260     Br  0.43385760  0.55432375  0.15069321    -0.00200
C1261       C  0.24205632  0.94710421  0.47700786     0.01200
C1262       C  0.22223695  0.96659386  0.46155387     0.04000
C1263       C  0.20989757  0.94971880  0.44262292    -0.12100
C1264       C  0.21622474  0.91302144  0.43924624     0.23300
C1265       C  0.23471643  0.89311169  0.45490337    -0.12600
C1266       C  0.24724059  0.90985450  0.47378979     0.04700
C1267       C  0.20260873  0.89518920  0.41943275     0.27100
C1268       C  0.16787167  0.88098421  0.41895125    -0.13300
C1269       C  0.15422320  0.86614997  0.39974299     0.05200
C1270       C  0.17572277  0.86424562  0.38114386    -0.09300
C1271       C  0.21111112  0.87712339  0.38196646     0.06000
C1272       C  0.22422475  0.89306302  0.40094626    -0.13600
Br1273     Br  0.24215710  0.84252006  0.45050965    -0.05700
Br1274     Br  0.20802382  0.01508188  0.46718410    -0.00100
Br1275     Br  0.10623108  0.84808576  0.39899165     0.00400
Br1276     Br  0.27150764  0.91320765  0.40152487    -0.04100
Br1277     Br  0.27033426  0.88076542  0.49548457     0.00500
Br1278     Br  0.18320815  0.97645995  0.42141438    -0.03300
Br1279     Br  0.13903560  0.88218718  0.44467250    -0.04200
Br1280     Br  0.24146104  0.87498793  0.35682558    -0.00200
C1281       C  0.30021420  0.95682734  0.06580748     0.01200
C1282       C  0.27791370  0.93533403  0.07882865     0.04000
C1283       C  0.29073178  0.92129233  0.09845060    -0.12100
C1284       C  0.32588010  0.92835581  0.10496321     0.23300
C1285       C  0.34791014  0.95032126  0.09230914    -0.12600
C1286       C  0.33562852  0.96352129  0.07246787     0.04700
C1287       C  0.34082366  0.91070109  0.12431113     0.27100
C1288       C  0.33868005  0.92770415  0.14447621    -0.13300
C1289       C  0.35454228  0.91184852  0.16263587     0.05200
C1290       C  0.37253482  0.87885733  0.16065296    -0.09300
C1291       C  0.37456828  0.86174862  0.14048997     0.06000
C1292       C  0.35877143  0.87773365  0.12227884    -0.13600
Br1293     Br  0.39560201  0.96106791  0.10190718    -0.05700
Br1294     Br  0.23178946  0.92078043  0.06862261    -0.00100
Br1295     Br  0.35082732  0.93511330  0.19036521     0.00400
Br1296     Br  0.36199326  0.85488080  0.09444312    -0.04100
Br1297     Br  0.36915160  0.98711073  0.05347987     0.00500
Br1298     Br  0.26100789  0.89082087  0.11603597    -0.03300
Br1299     Br  0.31417100  0.97286424  0.14703550    -0.04200
Br1300     Br  0.39986599  0.81712374  0.13779306    -0.00200
C1301       C  0.00572266  0.74796471  0.47835594     0.01200
C1302       C  0.50976899  0.78427161  0.47214276     0.04000
C1303       C  0.49667327  0.79635879  0.45210760    -0.12100
C1304       C  0.47896905  0.77255583  0.43822290     0.23300
C1305       C  0.47276863  0.73705094  0.44486528    -0.12600
C1306       C  0.98575165  0.72488684  0.46492405     0.04700
C1307       C  0.46611020  0.78499795  0.41679932     0.27100
C1308       C  0.43066345  0.79636284  0.41423388    -0.13300
C1309       C  0.41807674  0.80658920  0.39373638     0.05200
C1310       C  0.44099295  0.80559510  0.37571631    -0.09300
C1311       C  0.47658293  0.79461072  0.37834174     0.06000
C1312       C  0.48922082  0.78490705  0.39890664    -0.13600
Br1313     Br  0.94517808  0.70560002  0.42665928    -0.05700
Br1314     Br  0.53210740  0.81835945  0.49103812    -0.00100
Br1315     Br  0.36980458  0.82338065  0.39061803     0.00400
Br1316     Br  0.03850240  0.77256904  0.40273506    -0.04100
Br1317     Br  0.97287967  0.67773842  0.47473622     0.00500
Br1318     Br  0.50205900  0.84588211  0.44370312    -0.03300
Br1319     Br  0.39976807  0.79893472  0.43902191    -0.04200
Br1320     Br  0.50765923  0.79114837  0.35362774    -0.00200
C1321       C  0.92792505  0.31734113  0.35526621     0.80100
N1322       N  0.89985785  0.30097594  0.34562630    -0.78200
C1323       C  0.88745443  0.31299443  0.32633290     0.82500
N1324       N  0.90327133  0.34132622  0.31660507    -0.78200
C1325       C  0.93152965  0.35757222  0.32601990     0.82600
N1326       N  0.94376970  0.34564470  0.34536400    -0.79900
C1327       C  0.88815162  0.36202175  0.17921683     0.80100
N1328       N  0.91508194  0.37908457  0.18962264    -0.78200
C1329       C  0.92327908  0.37033054  0.21028951     0.82500
N1330       N  0.90396188  0.34510272  0.22071528    -0.78200
C1331       C  0.87800405  0.32694329  0.21024579     0.82600
N1332       N  0.86964059  0.33583170  0.18957667    -0.79900
C1333       C  0.66176745  0.35243684  0.36081513     0.80100
N1334       N  0.67910527  0.32650906  0.34964285    -0.78200
C1335       C  0.67111336  0.32018310  0.32863224     0.82500
N1336       N  0.64585783  0.34020392  0.31867973    -0.78200
C1337       C  0.62709277  0.36493252  0.32997051     0.82600
N1338       N  0.63550476  0.37143506  0.35095000    -0.79900
C1339       C  0.92933840  0.12178594  0.18199264     0.80100
N1340       N  0.90132737  0.13854129  0.19135962    -0.78200
C1341       C  0.89054875  0.12902614  0.21148781     0.82500
N1342       N  0.90753894  0.10222877  0.22217897    -0.78200
C1343       C  0.93575003  0.08563956  0.21291603     0.82600
N1344       N  0.94663346  0.09566025  0.19295453    -0.79900
C1345       C  0.94845964  0.38802264  0.31532805     0.42300
N1346       N  0.48328341  0.43187032  0.30886871     0.01200
C1347       C  0.48627434  0.03847270  0.21653272    -0.06700
H1348       H  0.49541715  0.40456248  0.20052636     0.06700
C1349       C  0.61283850  0.40413870  0.24579808    -0.07000
Co1350     Co  0.96140949  0.47226090  0.26913204     0.74200
N1351       N  0.48811813  0.43393696  0.23019953    -0.26200
Co1352     Co  0.52878185  0.47149651  0.23121104     0.74100
C1353       C  0.60091824  0.38768937  0.22583904     0.42400
N1354       N  0.58752879  0.43061705  0.29652601     0.00800
N1355       N  0.56697771  0.43167522  0.23287900     0.00900
N1356       N  0.94239715  0.03893178  0.24160553    -0.47100
H1357       H  0.91430192  0.39996696  0.28534474     0.06700
N1358       N  0.96294717  0.43355019  0.24499607     0.01200
N1359       N  0.57012687  0.00915124  0.23211856     0.00900
C1360       C  0.60897499  0.04851745  0.22345319     0.42500
N1361       N  0.56272398  0.43124641  0.31156249    -0.25700
C1362       C  0.93762476  0.03705426  0.29644965    -0.06600
N1363       N  0.47731038  0.40554137  0.32274292    -0.46800
N1364       N  0.57925595  0.03181721  0.21657065    -0.47000
C1365       C  0.94707247  0.05169878  0.31739484     0.42300
N1366       N  0.96514262  0.01243456  0.24501547     0.01200
N1367       N  0.56314175  0.00913035  0.31124768    -0.25700
N1368       N  0.95991205  0.43271893  0.29294474    -0.26200
N1369       N  0.58863643  0.00917625  0.29658784     0.00800
H1370       H  0.55314148  0.04191561  0.33928948     0.06700
H1371       H  0.64165254  0.03783827  0.25417231     0.06700
N1372       N  0.49090836  0.01162535  0.23055813    -0.26200
N1373       N  0.59029213  0.43126901  0.24880633    -0.25800
N1374       N  0.48366353  0.00998765  0.30948933     0.01200
C1375       C  0.94769044  0.39272229  0.22263381     0.42600
C1376       C  0.57030478  0.40597462  0.32636330    -0.07100
N1377       N  0.59289100  0.00902064  0.24833925    -0.25800
H1378       H  0.63539147  0.39765756  0.25589369     0.06700
N1379       N  0.93807145  0.40940623  0.24099738    -0.47100
H1380       H  0.55573442  0.40110588  0.34111797     0.06700
C1381       C  0.60175740  0.05250389  0.31763065     0.42400
C1382       C  0.93677523  0.40582289  0.29563865    -0.06600
Co1383     Co  0.52304293  0.47037558  0.31091136     0.73800
N1384       N  0.61189460  0.40578385  0.30005171    -0.46800
C1385       C  0.95430796  0.05651435  0.22398166     0.42700
N1386       N  0.47548951  0.03335850  0.32482826    -0.46800
Co1387     Co  0.59023397  0.46996892  0.27274554     0.73900
C1388       C  0.61815596  0.03349159  0.24445868    -0.07100
C1389       C  0.48050036  0.40932709  0.21514655    -0.06700
N1390       N  0.96131888  0.01110556  0.29305861    -0.26200
N1391       N  0.57256801  0.40609778  0.21854561    -0.47000
H1392       H  0.50272718  0.04403283  0.20261626     0.06700
C1393       C  0.56920114  0.03565576  0.32533701    -0.07100
Cl1394     Cl  0.52584952  0.47106817  0.27101349    -0.50100
C1395       C  0.60265380  0.38878920  0.31840192     0.42500
H1396       H  0.91484915  0.04282928  0.28636702     0.06700
N1397       N  0.61234771  0.03479302  0.29981771    -0.46800
C1398       C  0.62552008  0.32439473  0.18294013     0.80100
N1399       N  0.65353528  0.30717043  0.19222664    -0.78200
C1400       C  0.66403301  0.31609533  0.21248711     0.82500
N1401       N  0.64673825  0.34228517  0.22327064    -0.78200
C1402       C  0.61879465  0.35926446  0.21412931     0.82600
N1403       N  0.60808418  0.35023116  0.19401652    -0.79900
C1404       C  0.88987077  0.08795451  0.36072327     0.80100
N1405       N  0.87213067  0.11375891  0.34953419    -0.78200
C1406       C  0.88034657  0.12050314  0.32858756     0.82500
N1407       N  0.90571645  0.10087426  0.31873612    -0.78200
C1408       C  0.92428419  0.07581416  0.32977853     0.82600
N1409       N  0.91596224  0.06883868  0.35075086    -0.79900
C1410       C  0.63096835  0.12260497  0.35592879     0.80100
N1411       N  0.65762275  0.13801029  0.34455566    -0.78200
C1412       C  0.66640125  0.12555188  0.32475829     0.82500
N1413       N  0.64837716  0.09762158  0.31616396    -0.78200
C1414       C  0.62127297  0.08232970  0.32728225     0.82600
N1415       N  0.61256428  0.09479511  0.34719789    -0.79900
C1416       C  0.65998842  0.08363013  0.17680345     0.80100
N1417       N  0.68019476  0.10911125  0.18663857    -0.78200
C1418       C  0.67655190  0.11538507  0.20812541     0.82500
N1419       N  0.65330574  0.09559497  0.21984357    -0.78200
C1420       C  0.63211564  0.07112948  0.21011338     0.82600
N1421       N  0.63562585  0.06496962  0.18859382    -0.79900
C1422       C  0.85483536  0.30336321  0.22273885     0.42300
N1423       N  0.81413659  0.26534245  0.23014419     0.01200
C1424       C  0.71125976  0.26364811  0.32345179    -0.06700
H1425       H  0.84570054  0.24585690  0.33702402     0.06700
C1426       C  0.84275981  0.13268314  0.29443613    -0.07000
Co1427     Co  0.77521410  0.28583461  0.27038686     0.74200
N1428       N  0.81353256  0.25775492  0.30908700    -0.26200
Co1429     Co  0.77574532  0.21775194  0.30806549     0.74100
C1430       C  0.85730705  0.14305897  0.31530220     0.42400
N1431       N  0.81745514  0.15962737  0.24272509     0.00800
N1432       N  0.81496101  0.17864456  0.30704931     0.00900
N1433       N  0.71080471  0.30679354  0.29784147    -0.47100
H1434       H  0.84391385  0.33564176  0.25354067     0.06700
N1435       N  0.81392401  0.28386694  0.29472244     0.01200
N1436       N  0.73813182  0.17777498  0.30587953     0.00900
C1437       C  0.69526581  0.14248876  0.31294429     0.42500
N1438       N  0.81663831  0.18537630  0.22808287    -0.25700
C1439       C  0.71032755  0.30924314  0.24318645    -0.06600
N1440       N  0.83768282  0.27425827  0.21513590    -0.46800
N1441       N  0.71255606  0.17170876  0.31998808    -0.47000
C1442       C  0.69381091  0.29809748  0.22309437     0.42300
N1443       N  0.73582481  0.28269258  0.29403925     0.01200
N1444       N  0.73988979  0.18233170  0.22722803    -0.25700
N1445       N  0.81396844  0.28784491  0.24655823    -0.26200
N1446       N  0.73998592  0.15704513  0.24214857     0.00800
H1447       H  0.71118085  0.18809810  0.19714698     0.06700
H1448       H  0.70675803  0.10750147  0.28317692     0.06700
N1449       N  0.73659490  0.25713290  0.30873124    -0.26200
N1450       N  0.81639526  0.15592026  0.29080037    -0.25800
N1451       N  0.73701971  0.26288367  0.23006980     0.01200
C1452       C  0.85710819  0.29538823  0.31609450     0.42600
C1453       C  0.84308290  0.18009903  0.21395829    -0.07100
N1454       N  0.73892909  0.15405043  0.29012361    -0.25800
H1455       H  0.84903278  0.10971310  0.28455302     0.06700
N1456       N  0.83980785  0.30722024  0.29833028    -0.47100
H1457       H  0.84861642  0.19633848  0.19988615     0.06700
C1458       C  0.70070682  0.13976902  0.21942690     0.42400
C1459       C  0.83916971  0.31254747  0.24343491    -0.06600
Co1460     Co  0.77682807  0.22409597  0.22839781     0.73800
N1461       N  0.84350859  0.13646663  0.23943590    -0.46800
C1462       C  0.69376228  0.29622962  0.31593602     0.42700
N1463       N  0.71163442  0.26927118  0.21568620    -0.46800
Co1464     Co  0.77824098  0.15599356  0.26643169     0.73900
C1465       C  0.71247999  0.13049059  0.29317112    -0.07100
C1466       C  0.83978388  0.26278384  0.32331499    -0.06700
N1467       N  0.73690664  0.28610127  0.24614646    -0.26200
N1468       N  0.83839124  0.17129404  0.32242564    -0.47000
H1469       H  0.70660609  0.24828729  0.33798656     0.06700
C1470       C  0.71606744  0.17350201  0.21193477    -0.07100
Cl1471     Cl  0.77648463  0.22092398  0.26828665    -0.50100
C1472       C  0.86076878  0.14777243  0.22161469     0.42500
H1473       H  0.70419503  0.33178637  0.25344628     0.06700
N1474       N  0.71696260  0.13114107  0.23809196    -0.46800
C1475       C  0.75653294  0.46355789  0.49793113     0.02100
C1476       C  0.78457927  0.48917566  0.49845112     0.02100
C1477       C  0.79847851  0.49980563  0.51858628    -0.18400
C1478       C  0.78536382  0.48565303  0.53809394     0.02100
C1479       C  0.75611792  0.46160232  0.53747301     0.02100
C1480       C  0.74194212  0.45142416  0.51748662    -0.18400
H1481       H  0.72029675  0.43221535  0.51712114     0.04100
H1482       H  0.81896953  0.01793631  0.51946226     0.04100
C1483       C  0.54311571  0.23597490  0.03826915     0.02100
C1484       C  0.52157477  0.20468114  0.03796132     0.02100
C1485       C  0.01174342  0.18985486  0.01800301    -0.18400
C1486       C  0.52224758  0.20546050  0.99839350     0.02100
C1487       C  0.54481068  0.23593176  0.99871903     0.02100
C1488       C  0.55429755  0.25108528  0.01863043    -0.18400
H1489       H  0.57109052  0.27471125  0.01884291     0.04100
H1490       H  0.99505515  0.16616146  0.01771491     0.04100
C1491       C  0.55003491  0.20956929  0.50128486     0.02100
C1492       C  0.52028808  0.23293115  0.50020503     0.00900
C1493       C  0.50421261  0.24428516  0.51950095    -0.18400
C1494       C  0.51679776  0.23306061  0.53980571     0.02100
C1495       C  0.54551300  0.20840902  0.54083892     0.02100
C1496       C  0.56216137  0.19777863  0.52157061    -0.18400
H1497       H  0.58463107  0.17963320  0.52237209     0.04100
H1498       H  0.98185131  0.26257045  0.51872504     0.04100
C1499       C  0.76463123  0.49554961  0.03746343     0.02100
C1500       C  0.78904269  0.46766664  0.04281609     0.02100
C1501       C  0.80542723  0.44851698  0.02630894    -0.18400
C1502       C  0.80118469  0.45930722  0.00516864     0.02100
C1503       C  0.78062328  0.48778793  0.99901272     0.02100
C1504       C  0.76025743  0.50486945  0.01535478    -0.18400
H1505       H  0.74136066  0.02468850  0.01209462     0.04100
H1506       H  0.82249256  0.42574038  0.02998416     0.04100
C1507       C  0.86922257  0.37475121  0.85102103     0.80100
N1508       N  0.85431287  0.34686909  0.84028082    -0.78200
C1509       C  0.86969767  0.33376631  0.82213413     0.82500
N1510       N  0.89984392  0.34895169  0.81442288    -0.78200
C1511       C  0.91466616  0.37714683  0.82482637     0.82600
N1512       N  0.89954843  0.38978085  0.84321609    -0.79900
C1513       C  0.91845073  0.10452461  0.86117699     0.80100
N1514       N  0.89214424  0.12257518  0.85064803    -0.78200
C1515       C  0.88355889  0.11370409  0.83001931     0.82500
N1516       N  0.90209284  0.08771214  0.81983385    -0.78200
C1517       C  0.92760576  0.06899279  0.83032027     0.82600
N1518       N  0.93610302  0.07772035  0.85093979    -0.79900
C1519       C  0.68745852  0.06150807  0.85486388     0.80100
N1520       N  0.65940237  0.04519034  0.84496716    -0.78200
C1521       C  0.64527500  0.05941090  0.82654322     0.82500
N1522       N  0.65977212  0.08931579  0.81773084    -0.78200
C1523       C  0.68773759  0.10544325  0.82739562     0.82600
N1524       N  0.70087192  0.09186600  0.84599936    -0.79900
C1525       C  0.65081285  0.33411237  0.86143773     0.80100
N1526       N  0.63163995  0.35962966  0.85103453    -0.78200
C1527       C  0.63738631  0.36633873  0.82978953     0.82500
N1528       N  0.66166198  0.34673827  0.81876873    -0.78200
C1529       C  0.68193578  0.32222653  0.82922759     0.82600
N1530       N  0.67625435  0.31573992  0.85051899    -0.79900
C1531       C  0.64181272  0.10367913  0.67949548     0.80100
N1532       N  0.66768875  0.12224339  0.69001923    -0.78200
C1533       C  0.67540934  0.11435448  0.71094732     0.82500
N1534       N  0.65654637  0.08881130  0.72143265    -0.78200
C1535       C  0.63162973  0.06948438  0.71086763     0.82600
N1536       N  0.62397468  0.07719641  0.68997997    -0.79900
C1537       C  0.87494928  0.05537469  0.68534257     0.80100
N1538       N  0.90268910  0.03992415  0.69575802    -0.78200
C1539       C  0.91435469  0.05307377  0.71492046     0.82500
N1540       N  0.89809326  0.08196276  0.72378440    -0.78200
C1541       C  0.87001687  0.09750322  0.71360954     0.82600
N1542       N  0.85864753  0.08428584  0.69429876    -0.79900
C1543       C  0.85501266  0.30191401  0.81180664     0.42300
N1544       N  0.82308408  0.25557192  0.80655040     0.01200
C1545       C  0.82081378  0.14729906  0.71553135    -0.06700
H1546       H  0.81282518  0.28242036  0.69845157     0.06700
C1547       C  0.69464719  0.28337744  0.74381403    -0.07000
Co1548     Co  0.84553758  0.21425029  0.76740714     0.74200
N1549       N  0.81945290  0.25237615  0.72806896    -0.26200
Co1550     Co  0.77819135  0.21512352  0.72930871     0.74100
C1551       C  0.70638866  0.29997178  0.72378913     0.42400
N1552       N  0.71946433  0.25699922  0.79478375     0.00800
N1553       N  0.74008467  0.25547675  0.73077065     0.00900
N1554       N  0.86436842  0.14693150  0.74078988    -0.47100
H1555       H  0.89031612  0.28975117  0.78236709     0.06700
N1556       N  0.84444563  0.25246719  0.74300239     0.01200
N1557       N  0.73710094  0.17783427  0.73107715     0.00900
C1558       C  0.69894926  0.13736064  0.72353339     0.42500
N1559       N  0.74459061  0.25608469  0.80960932    -0.25700
C1560       C  0.86983347  0.15081931  0.79589818    -0.06600
N1561       N  0.82712849  0.28333398  0.81951833    -0.46800
N1562       N  0.72814227  0.15427563  0.71603778    -0.47000
C1563       C  0.86037488  0.13668218  0.81700878     0.42300
N1564       N  0.84206578  0.17396325  0.74379679     0.01200
N1565       N  0.74396072  0.17885825  0.81003034    -0.25700
N1566       N  0.84670897  0.25468150  0.79079699    -0.26200
N1567       N  0.71809398  0.17868814  0.79560342     0.00800
H1568       H  0.75444084  0.14715423  0.83843308     0.06700
H1569       H  0.66669977  0.14865537  0.75424538     0.06700
N1570       N  0.81638813  0.17470299  0.72923379    -0.26200
N1571       N  0.71691710  0.25600365  0.74679957    -0.25800
N1572       N  0.82343605  0.17782630  0.80837972     0.01200
C1573       C  0.86054608  0.29335837  0.72083266     0.42600
C1574       C  0.73778450  0.28126486  0.82445801    -0.07100
N1575       N  0.71458803  0.17826196  0.74741756    -0.25800
H1576       H  0.67239449  0.29012114  0.75406447     0.06700
N1577       N  0.86951765  0.27651576  0.73927119    -0.47100
H1578       H  0.75280115  0.28578227  0.83908596     0.06700
C1579       C  0.70520034  0.13624289  0.81740099     0.42400
C1580       C  0.86835198  0.28304591  0.79287010    -0.06600
Co1581     Co  0.78391000  0.21699532  0.80905292     0.73800
N1582       N  0.69535010  0.28199035  0.79860778    -0.46800
C1583       C  0.85253564  0.12892274  0.72326957     0.42700
N1584       N  0.83176070  0.15505049  0.82407426    -0.46800
Co1585     Co  0.71658419  0.21743357  0.77114663     0.73900
C1586       C  0.68982401  0.15314875  0.74422840    -0.07100
C1587       C  0.82760604  0.27712390  0.71307700    -0.06700
N1588       N  0.84591012  0.17645412  0.79205411    -0.26200
N1589       N  0.73457269  0.28132000  0.71642932    -0.47000
H1590       H  0.80420093  0.14136770  0.70174871     0.06700
C1591       C  0.73809324  0.15295823  0.82451209    -0.07100
Cl1592     Cl  0.78104297  0.21581132  0.76922079    -0.50100
C1593       C  0.70549414  0.29878683  0.81686766     0.42500
H1594       H  0.89281490  0.14505258  0.78602340     0.06700
N1595       N  0.69418787  0.15334800  0.79938926    -0.46800
C1596       C  0.91810854  0.33280079  0.67870543     0.80100
N1597       N  0.93616927  0.35762875  0.69040794    -0.78200
C1598       C  0.92885788  0.36231266  0.71165837     0.82500
N1599       N  0.90383855  0.34164214  0.72130113    -0.78200
C1600       C  0.88462527  0.31785960  0.70958003     0.82600
N1601       N  0.89214595  0.31304679  0.68833039    -0.79900
C1602       C  0.68073306  0.36828758  0.68309717     0.80100
N1603       N  0.65362611  0.38478770  0.69366729    -0.78200
C1604       C  0.64406635  0.37377226  0.71373807     0.82500
N1605       N  0.66162261  0.34636641  0.72317156    -0.78200
C1606       C  0.68882545  0.32993303  0.71291662     0.82600
N1607       N  0.69842582  0.34078502  0.69277557    -0.79900
C1608       C  0.95181638  0.38509375  0.72488043     0.42300
N1609       N  0.99333247  0.42213815  0.73263072     0.01200
C1610       C  0.59577804  0.42213398  0.82596532    -0.06700
H1611       H  0.95827527  0.44241033  0.83775115     0.06700
C1612       C  0.96587110  0.05546311  0.79692865    -0.07000
Co1613     Co  0.53202682  0.40091337  0.77271358     0.74200
N1614       N  0.99302839  0.42933760  0.81118608    -0.26200
Co1615     Co  0.53170325  0.46889091  0.81087117     0.74100
C1616       C  0.95080404  0.04566707  0.81770385     0.42400
N1617       N  0.99040486  0.02753533  0.74574821     0.00800
N1618       N  0.99279711  0.00922511  0.81010576     0.00900
N1619       N  0.59621287  0.37982273  0.79990449    -0.47100
H1620       H  0.96246254  0.35161204  0.75538304     0.06700
N1621       N  0.99293407  0.40336179  0.79675166     0.01200
N1622       N  0.57011307  0.00898578  0.80944226     0.00900
C1623       C  0.61443313  0.04302898  0.81595311     0.42500
N1624       N  0.99127661  0.00133614  0.73147462    -0.25700
C1625       C  0.59795059  0.37802437  0.74519611    -0.06600
N1626       N  0.96949691  0.41416031  0.71762085    -0.46800
N1627       N  0.59650832  0.01423724  0.82325737    -0.47000
C1628       C  0.61440760  0.39046108  0.72520936     0.42300
N1629       N  0.57096192  0.40378015  0.79649045     0.01200
N1630       N  0.56814137  0.00433622  0.73065483    -0.25700
N1631       N  0.99328211  0.39913147  0.74880089    -0.26200
N1632       N  0.56846188  0.02965572  0.74545448     0.00800
H1633       H  0.59744913  0.99704612  0.70100956     0.06700
H1634       H  0.60294988  0.07801434  0.78607835     0.06700
N1635       N  0.57021586  0.42891590  0.81140839    -0.26200
N1636       N  0.99189973  0.03179046  0.79371087    -0.25800
N1637       N  0.57051718  0.42437569  0.73265801     0.01200
C1638       C  0.94731806  0.39328391  0.81645965     0.42600
C1639       C  0.96384450  0.00480636  0.71791544    -0.07100
N1640       N  0.56949869  0.03267778  0.79357395    -0.25800
H1641       H  0.96014436  0.07836308  0.78680108     0.06700
N1642       N  0.96580394  0.38112077  0.79930629    -0.47100
H1643       H  0.95796179  0.98748017  0.70441398     0.06700
C1644       C  0.60894819  0.04513443  0.72308156     0.42400
C1645       C  0.96762335  0.37488349  0.74545403    -0.06600
Co1646     Co  0.53104303  0.46299762  0.73124845     0.73800
N1647       N  0.96309202  0.04943242  0.74264202    -0.46800
C1648       C  0.61329536  0.38995754  0.81800727     0.42700
N1649       N  0.59597967  0.41913507  0.71824836    -0.46800
Co1650     Co  0.53004785  0.03124028  0.76958201     0.73900
C1651       C  0.59664900  0.05546707  0.79635961    -0.07100
C1652       C  0.96521865  0.42512041  0.82443684    -0.06700
N1653       N  0.57086733  0.40061860  0.74848371    -0.26200
N1654       N  0.96919426  0.01723853  0.82526506    -0.47000
H1655       H  0.60086410  0.43732774  0.84047935     0.06700
C1656       C  0.59258782  0.01207738  0.71560233    -0.07100
Cl1657     Cl  0.53136465  0.46593057  0.77103228    -0.50100
C1658       C  0.94521290  0.03647644  0.72538646     0.42500
H1659       H  0.60462500  0.35524397  0.75519363     0.06700
N1660       N  0.59239892  0.05475371  0.74146024    -0.46800
C1661       C  0.70422900  0.04717493  0.87505390     0.01200
C1662       C  0.74099034  0.05346218  0.87875621     0.04000
C1663       C  0.75592558  0.04729406  0.89916763    -0.12100
C1664       C  0.73662538  0.02840029  0.91495336     0.23300
C1665       C  0.70026759  0.02115237  0.91143577    -0.12600
C1666       C  0.68389183  0.03088207  0.89172396     0.04700
C1667       C  0.75451101  0.01692387  0.93543148     0.27100
C1668       C  0.76979073  0.48165381  0.93732270    -0.13300
C1669       C  0.78871789  0.47045674  0.95733300     0.05200
C1670       C  0.78040773  0.49720320  0.97496130    -0.09300
C1671       C  0.77292702  0.03315847  0.97107986     0.06000
C1672       C  0.75854016  0.04270270  0.95144511    -0.13600
Br1673     Br  0.67255754  0.00019491  0.93448684    -0.05700
Br1674     Br  0.77298395  0.06731145  0.85572022    -0.00100
Br1675     Br  0.84691309  0.39219996  0.96748554     0.00400
Br1676     Br  0.73958601  0.09052774  0.94772805    -0.04100
Br1677     Br  0.63351430  0.02254402  0.88850162     0.00500
Br1678     Br  0.80099130  0.06948563  0.90620070    -0.03300
Br1679     Br  0.75230313  0.45035901  0.91434695    -0.04200
Br1680     Br  0.78760253  0.07089842  0.99061648    -0.00200
C1681       C  0.85408508  0.38694589  0.87191411     0.01200
C1682       C  0.84765195  0.42340522  0.87553193     0.04000
C1683       C  0.83628048  0.43545084  0.89596827    -0.12100
C1684       C  0.82973206  0.41119353  0.91334791     0.23300
C1685       C  0.83555981  0.37383150  0.90908111    -0.12600
C1686       C  0.84761965  0.36221872  0.88861306     0.04700
C1687       C  0.81984498  0.42553023  0.93577990     0.27100
C1688       C  0.84787675  0.45209834  0.94783056    -0.13300
C1689       C  0.84510364  0.45926647  0.97341753     0.05200
C1690       C  0.81394115  0.44001758  0.98741358    -0.09300
C1691       C  0.78474576  0.41477293  0.97562059     0.06000
C1692       C  0.78763202  0.40739445  0.95003973    -0.13600
Br1693     Br  0.83085895  0.33616459  0.93033087    -0.05700
Br1694     Br  0.85320227  0.45706768  0.85190288    -0.00100
Br1695     Br  0.87828031  0.49048442  0.98751572     0.00400
Br1696     Br  0.75356024  0.37378452  0.93828392    -0.04100
Br1697     Br  0.85799193  0.31188080  0.88386736     0.00500
Br1698     Br  0.83051411  0.48605411  0.89910327    -0.03300
Br1699     Br  0.89248956  0.46467710  0.93461028    -0.04200
Br1700     Br  0.74479798  0.39719232  0.99174494    -0.00200
C1701       C  0.55818558  0.19213144  0.56153950     0.01200
C1702       C  0.58322582  0.21008410  0.57463601     0.04000
C1703       C  0.59532878  0.19438234  0.59396848    -0.12100
C1704       C  0.58456344  0.15953356  0.59964719     0.23300
C1705       C  0.56126564  0.14057491  0.58606378    -0.12600
C1706       C  0.54799843  0.15680519  0.56713998     0.04700
C1707       C  0.59843871  0.14289647  0.61977760     0.27100
C1708       C  0.63187512  0.12579741  0.61988115    -0.13300
C1709       C  0.64646062  0.11315356  0.63943237     0.05200
C1710       C  0.62751846  0.11727803  0.65884831    -0.09300
C1711       C  0.59410336  0.13439953  0.65870325     0.06000
C1712       C  0.57929937  0.14648801  0.63916831    -0.13600
Br1713     Br  0.54842197  0.09196275  0.59324907    -0.05700
Br1714     Br  0.60464515  0.25400940  0.56506975    -0.00100
Br1715     Br  0.69235110  0.09046367  0.63976834     0.00400
Br1716     Br  0.53269444  0.16794277  0.63888633    -0.04100
Br1717     Br  0.51769096  0.12935023  0.54835210     0.00500
Br1718     Br  0.62736973  0.22028038  0.61266463    -0.03300
Br1719     Br  0.65740413  0.11960372  0.59316430    -0.04200
Br1720     Br  0.56964667  0.14364744  0.68552807    -0.00200
C1721       C  0.93228042  0.32146698  0.65756567     0.01200
C1722       C  0.96579707  0.30452757  0.65669798     0.04000
C1723       C  0.97887512  0.29146667  0.63697357    -0.12100
C1724       C  0.95853631  0.29512472  0.61799985     0.23300
C1725       C  0.92553518  0.31300469  0.61871996    -0.12600
C1726       C  0.91228583  0.32589914  0.63852048     0.04700
C1727       C  0.97196314  0.27994308  0.59738397     0.27100
C1728       C  0.99694687  0.29909085  0.58502327    -0.13300
C1729       C  0.01094924  0.28404284  0.56604147     0.05200
C1730       C  0.50070090  0.24928328  0.55950676    -0.09300
C1731       C  0.47324715  0.23165939  0.57086279     0.06000
C1732       C  0.95957290  0.24650065  0.59003983    -0.13600
Br1733     Br  0.89883406  0.32010690  0.59247735    -0.05700
Br1734     Br  0.99330722  0.29754802  0.68273726    -0.00100
Br1735     Br  0.04186232  0.31267896  0.54822546     0.00400
Br1736     Br  0.92340016  0.22138131  0.60616681    -0.04100
Br1737     Br  0.86718680  0.35024586  0.63956065     0.00500
Br1738     Br  0.52468362  0.26830154  0.63591491    -0.03300
Br1739     Br  0.01126679  0.34643442  0.59395254    -0.04200
Br1740     Br  0.45119127  0.18969419  0.55890498    -0.00200
C1741       C  0.63776825  0.32032920  0.88231513     0.01200
C1742       C  0.62249806  0.28577438  0.88314256     0.04000
C1743       C  0.60742262  0.27307339  0.90240682    -0.12100
C1744       C  0.60668811  0.29504244  0.92080033     0.23300
C1745       C  0.62195065  0.32952264  0.92009295    -0.12600
C1746       C  0.63757860  0.34214999  0.90085552     0.04700
C1747       C  0.59097576  0.28106303  0.94105528     0.27100
C1748       C  0.55561964  0.28917532  0.94657528    -0.13300
C1749       C  0.54105705  0.27588236  0.96591397     0.05200
C1750       C  0.56052772  0.25156869  0.97874857    -0.09300
C1751       C  0.59627561  0.24415824  0.97331894     0.06000
C1752       C  0.61146024  0.25908656  0.95463839    -0.13600
Br1753     Br  0.62172155  0.35906701  0.94559395    -0.05700
Br1754     Br  0.62009820  0.25623574  0.85759566    -0.00100
Br1755     Br  0.49663770  0.29485974  0.97596699     0.00400
Br1756     Br  0.66046016  0.24941827  0.94740715    -0.04100
Br1757     Br  0.65952290  0.38881328  0.90002183     0.00500
Br1758     Br  0.58783375  0.22533240  0.90374539    -0.03300
Br1759     Br  0.52706997  0.31805076  0.92741889    -0.04200
Br1760     Br  0.62556325  0.21506966  0.99178208    -0.00200
C1761       C  0.00820078  0.18973195  0.97799907     0.01200
C1762       C  0.52810718  0.16409956  0.96647761     0.04000
C1763       C  0.51494867  0.14992700  0.94697538    -0.12100
C1764       C  0.98086540  0.15961210  0.93960752     0.23300
C1765       C  0.95981410  0.18295010  0.95192210    -0.12600
C1766       C  0.97325290  0.19774643  0.97109965     0.04700
C1767       C  0.96621622  0.14454424  0.91931589     0.27100
C1768       C  0.96776020  0.16476465  0.90013445    -0.13300
C1769       C  0.95181818  0.15171378  0.88117845     0.05200
C1770       C  0.93324729  0.11885542  0.88148532    -0.09300
C1771       C  0.93145284  0.09878536  0.90071816     0.06000
C1772       C  0.94826193  0.11139433  0.91955682    -0.13600
Br1773     Br  0.91194044  0.19373537  0.94264454    -0.05700
Br1774     Br  0.57096601  0.14471840  0.97871726    -0.00100
Br1775     Br  0.95679649  0.17829343  0.85457584     0.00400
Br1776     Br  0.94639434  0.08361828  0.94582071    -0.04100
Br1777     Br  0.94206292  0.22636011  0.98855733     0.00500
Br1778     Br  0.54312408  0.11662302  0.93053469    -0.03300
Br1779     Br  0.99126718  0.21068518  0.90001902    -0.04200
Br1780     Br  0.90485063  0.05473945  0.90137132    -0.00200
C1781       C  0.80270454  0.49578620  0.55897246     0.01200
C1782       C  0.78278464  0.01800355  0.57365323     0.04000
C1783       C  0.79740971  0.02487711  0.59416934    -0.12100
C1784       C  0.82971534  0.00888638  0.60045851     0.23300
C1785       C  0.85024785  0.48712916  0.58554904    -0.12600
C1786       C  0.83671657  0.48239048  0.56447676     0.04700
C1787       C  0.84539429  0.01815165  0.62190627     0.27100
C1788       C  0.86334924  0.05103292  0.62448039    -0.13300
C1789       C  0.87278464  0.06317879  0.64522941     0.05200
C1790       C  0.86468669  0.04237733  0.66359552    -0.09300
C1791       C  0.84873513  0.00843919  0.66094256     0.06000
C1792       C  0.83926181  0.99628543  0.64013398    -0.13600
Br1793     Br  0.89379713  0.46396203  0.59409987    -0.05700
Br1794     Br  0.74099829  0.04365531  0.56461805    -0.00100
Br1795     Br  0.89756666  0.10809757  0.64846481     0.00400
Br1796     Br  0.81886213  0.44979175  0.63677842    -0.04100
Br1797     Br  0.86613413  0.45990260  0.54287571     0.00500
Br1798     Br  0.77387598  0.05748481  0.61355907    -0.03300
Br1799     Br  0.87482481  0.07948947  0.59940779    -0.04200
Br1800     Br  0.83860633  0.97923209  0.68590715    -0.00200
C1801       C  0.69039877  0.38016857  0.66109878     0.01200
C1802       C  0.68462106  0.35752465  0.64322710     0.04000
C1803       C  0.69215313  0.36975153  0.62217684    -0.12100
C1804       C  0.70592979  0.40448611  0.61895355     0.23300
C1805       C  0.71105649  0.42725758  0.63680061    -0.12600
C1806       C  0.70367323  0.41503670  0.65781174     0.04700
C1807       C  0.71685196  0.41661123  0.59704625     0.27100
C1808       C  0.74938622  0.40488602  0.58833805    -0.13300
C1809       C  0.76110482  0.41813654  0.56832330     0.05200
C1810       C  0.74142041  0.44466651  0.55738625    -0.09300
C1811       C  0.70731102  0.45394036  0.56513110     0.06000
C1812       C  0.69528527  0.44027427  0.58506990    -0.13600
Br1813     Br  0.72762983  0.47553255  0.63241842    -0.05700
Br1814     Br  0.66543296  0.31012429  0.64750238    -0.00100
Br1815     Br  0.80203470  0.39689797  0.55487778     0.00400
Br1816     Br  0.64940186  0.45405140  0.59616752    -0.04100
Br1817     Br  0.71328687  0.44561438  0.68221532     0.00500
Br1818     Br  0.68285164  0.33935588  0.59765283    -0.03300
Br1819     Br  0.77817698  0.37078406  0.60393687    -0.04200
Br1820     Br  0.67628573  0.48399250  0.54813234    -0.00200
C1821       C  0.74567814  0.01455129  0.05541028     0.01200
C1822       C  0.70882338  0.00911893  0.05846173     0.04000
C1823       C  0.69194001  0.02265089  0.07707387    -0.12100
C1824       C  0.71169808  0.04187575  0.09254538     0.23300
C1825       C  0.74761088  0.05005730  0.08845478    -0.12600
C1826       C  0.76403579  0.03765912  0.06951459     0.04700
C1827       C  0.69539916  0.05204195  0.11354955     0.27100
C1828       C  0.68193393  0.08680485  0.11686275    -0.13300
C1829       C  0.66855328  0.09669076  0.13727508     0.05200
C1830       C  0.66915846  0.07205852  0.15458260    -0.09300
C1831       C  0.68203235  0.03699475  0.15105847     0.06000
C1832       C  0.69493119  0.02707183  0.13060426    -0.13600
Br1833     Br  0.77474954  0.07707200  0.10925432    -0.05700
Br1834     Br  0.68068152  0.48187926  0.03661733    -0.00100
Br1835     Br  0.64874849  0.14374926  0.14143393     0.00400
Br1836     Br  0.70318304  0.47544355  0.12484535    -0.04100
Br1837     Br  0.81028632  0.05542707  0.06181368     0.00500
Br1838     Br  0.64204017  0.01396857  0.08190433    -0.03300
Br1839     Br  0.68298974  0.12110548  0.09356219    -0.04200
Br1840     Br  0.68472956  0.00295948  0.17453216    -0.00200
C1841       C  0.56821111  0.19665411  0.48133928     0.01200
C1842       C  0.58812747  0.22055462  0.46844850     0.04000
C1843       C  0.59941790  0.21028224  0.44770036    -0.12100
C1844       C  0.59291526  0.17521752  0.44037262     0.23300
C1845       C  0.57742755  0.14995726  0.45437030    -0.12600
C1846       C  0.56522463  0.16052718  0.47482843     0.04700
C1847       C  0.60343735  0.16406514  0.41831496     0.27100
C1848       C  0.57767882  0.16210780  0.40182805    -0.13300
C1849       C  0.58691357  0.14928508  0.38128412     0.05200
C1850       C  0.62164618  0.13686941  0.37738038    -0.09300
C1851       C  0.64758393  0.13900409  0.39385781     0.06000
C1852       C  0.63847177  0.15274333  0.41425405    -0.13600
Br1853     Br  0.57343244  0.10062145  0.44541908    -0.05700
Br1854     Br  0.60413717  0.26530814  0.48029841    -0.00100
Br1855     Br  0.55235729  0.15052019  0.35820167     0.00400
Br1856     Br  0.67345364  0.15465794  0.43704582    -0.04100
Br1857     Br  0.54575405  0.12478090  0.49388990     0.00500
Br1858     Br  0.62433315  0.24390513  0.42948295    -0.03300
Br1859     Br  0.52927250  0.17542695  0.40765236    -0.04200
Br1860     Br  0.69522923  0.12163624  0.38900372    -0.00200
C1861       C  0.87487180  0.07512585  0.38141976     0.01200
C1862       C  0.84215828  0.05656051  0.38126954     0.04000
C1863       C  0.82685336  0.04469926  0.40073427    -0.12100
C1864       C  0.84439176  0.05075334  0.42048311     0.23300
C1865       C  0.87683551  0.06982126  0.42070709    -0.12600
C1866       C  0.89228577  0.08158222  0.40116740     0.04700
C1867       C  0.82943524  0.03551579  0.44079979     0.27100
C1868       C  0.80781160  0.05648902  0.45432799    -0.13300
C1869       C  0.79393952  0.04188237  0.47358000     0.05200
C1870       C  0.80032392  0.50505200  0.47842584    -0.09300
C1871       C  0.82342039  0.48480649  0.46529580     0.06000
C1872       C  0.83736499  0.49954829  0.44612658    -0.13600
Br1873     Br  0.89964113  0.08032117  0.44784905    -0.05700
Br1874     Br  0.81897161  0.04584692  0.35420533    -0.00100
Br1875     Br  0.76825185  0.07250738  0.49322540     0.00400
Br1876     Br  0.86791553  0.47120404  0.42789952    -0.04100
Br1877     Br  0.93721741  0.10642083  0.40135007     0.00500
Br1878     Br  0.78151037  0.02048382  0.40048201    -0.03300
Br1879     Br  0.79655186  0.10498457  0.44607373    -0.04200
Br1880     Br  0.83936264  0.43839839  0.47465161    -0.00200
C1881       C  0.61267963  0.31390544  0.16143492     0.01200
C1882       C  0.60253799  0.27812512  0.15772930     0.04000
C1883       C  0.58950893  0.26800018  0.13743733    -0.12100
C1884       C  0.58709758  0.29333659  0.12067170     0.23300
C1885       C  0.59674147  0.32922857  0.12435907    -0.12600
C1886       C  0.60903317  0.33969459  0.14484400     0.04700
C1887       C  0.57621497  0.28146436  0.09890642     0.27100
C1888       C  0.60124900  0.26469975  0.08550178    -0.13300
C1889       C  0.59085552  0.25143247  0.06528133     0.05200
C1890       C  0.55482921  0.25319651  0.05878512    -0.09300
C1891       C  0.53043287  0.27240678  0.07164989     0.06000
C1892       C  0.54102846  0.28618180  0.09178532    -0.13600
Br1893     Br  0.59377172  0.36369016  0.10115771    -0.05700
Br1894     Br  0.60461075  0.24310639  0.18070248    -0.00100
Br1895     Br  0.62682310  0.23204404  0.04659314     0.00400
Br1896     Br  0.50760333  0.31165241  0.10971045    -0.04100
Br1897     Br  0.62173018  0.38913362  0.14978756     0.00500
Br1898     Br  0.57491100  0.21926859  0.13250185    -0.03300
Br1899     Br  0.64983989  0.25943629  0.09518108    -0.04200
Br1900     Br  0.98364560  0.28311172  0.06094082    -0.00200
C1901       C  0.00773376  0.18761940  0.05810022     0.01200
C1902       C  0.97091661  0.18852550  0.06277813     0.04000
C1903       C  0.95807683  0.17477405  0.08237715    -0.12100
C1904       C  0.98173360  0.15982294  0.09742704     0.23300
C1905       C  0.01788890  0.15590293  0.09213827    -0.12600
C1906       C  0.53074364  0.16916064  0.07232333     0.04700
C1907       C  0.96848013  0.14968802  0.11909199     0.27100
C1908       C  0.96280604  0.17655678  0.13461645    -0.13300
C1909       C  0.94896931  0.16772236  0.15499377     0.05200
C1910       C  0.94122902  0.13168914  0.16005562    -0.09300
C1911       C  0.94615251  0.10484783  0.14425652     0.06000
C1912       C  0.95967585  0.11390762  0.12379618    -0.13600
Br1913     Br  0.54951074  0.13192754  0.11200076    -0.05700
Br1914     Br  0.93721396  0.20810730  0.04262181    -0.00100
Br1915     Br  0.94187941  0.20522832  0.17598543     0.00400
Br1916     Br  0.96542485  0.07757733  0.10195959    -0.04100
Br1917     Br  0.57878960  0.15858328  0.06393879     0.00500
Br1918     Br  0.90786216  0.17654018  0.08888257    -0.03300
Br1919     Br  0.47397687  0.22567621  0.12781504    -0.04200
Br1920     Br  0.93244529  0.05588249  0.15000328    -0.00200
C1921       C  0.74347459  0.44642447  0.47761637     0.01200
C1922       C  0.72216524  0.46550765  0.46275134     0.04000
C1923       C  0.70961069  0.44866625  0.44388875    -0.12100
C1924       C  0.71723127  0.41234887  0.44004656     0.23300
C1925       C  0.73742866  0.39284118  0.45510402    -0.12600
C1926       C  0.74986565  0.40949811  0.47402585     0.04700
C1927       C  0.70365671  0.39467515  0.42020307     0.27100
C1928       C  0.66931341  0.37950114  0.41983255    -0.13300
C1929       C  0.65541745  0.36551156  0.40045300     0.05200
C1930       C  0.67649452  0.36507103  0.38163752    -0.09300
C1931       C  0.71154724  0.37883263  0.38235571     0.06000
C1932       C  0.72478896  0.39409153  0.40148582    -0.13600
Br1933     Br  0.74795761  0.34312107  0.44965994    -0.05700
Br1934     Br  0.70633729  0.51320427  0.46919025    -0.00100
Br1935     Br  0.60765145  0.34681697  0.39972156     0.00400
Br1936     Br  0.77165247  0.41522303  0.40203488    -0.04100
Br1937     Br  0.77417770  0.38069220  0.49537736     0.00500
Br1938     Br  0.68147420  0.47510377  0.42324065    -0.03300
Br1939     Br  0.64151601  0.37790799  0.44597154    -0.04200
Br1940     Br  0.74117902  0.37887785  0.35687704    -0.00200
C1941       C  0.79988009  0.45783081  0.06506107     0.01200
C1942       C  0.77874608  0.43437994  0.07751836     0.04000
C1943       C  0.79231092  0.41960537  0.09675468    -0.12100
C1944       C  0.82731090  0.42744924  0.10329282     0.23300
C1945       C  0.84825523  0.45123432  0.09113450    -0.12600
C1946       C  0.83502946  0.46561243  0.07179467     0.04700
C1947       C  0.84262442  0.41006283  0.12268184     0.27100
C1948       C  0.84032416  0.42734050  0.14275197    -0.13300
C1949       C  0.85553320  0.41151954  0.16113258     0.05200
C1950       C  0.87319916  0.37829092  0.15951183    -0.09300
C1951       C  0.87557562  0.36095312  0.13940734     0.06000
C1952       C  0.86042990  0.37694470  0.12094467    -0.13600
Br1953     Br  0.89562871  0.46320240  0.10076912    -0.05700
Br1954     Br  0.73330189  0.41846424  0.06689697    -0.00100
Br1955     Br  0.85117023  0.43514479  0.18870569     0.00400
Br1956     Br  0.86446827  0.35397261  0.09319164    -0.04100
Br1957     Br  0.86704910  0.49224610  0.05334908     0.00500
Br1958     Br  0.76354638  0.38763414  0.11391890    -0.03300
Br1959     Br  0.81644365  0.47292791  0.14486753    -0.04200
Br1960     Br  0.90034464  0.31595715  0.13715671    -0.00200
C1961       C  0.50543981  0.24583148  0.47913352     0.01200
C1962       C  0.00983164  0.28190932  0.47262618     0.04000
C1963       C  0.99772604  0.29339579  0.45223683    -0.12100
C1964       C  0.97978544  0.26943742  0.43851849     0.23300
C1965       C  0.97282793  0.23427753  0.44560686    -0.12600
C1966       C  0.48559476  0.22250262  0.46580758     0.04700
C1967       C  0.96651923  0.28179614  0.41712648     0.27100
C1968       C  0.93082323  0.29251404  0.41475741    -0.13300
C1969       C  0.91804979  0.30384032  0.39449450     0.05200
C1970       C  0.94101481  0.30465405  0.37646889    -0.09300
C1971       C  0.97673959  0.29388909  0.37885559     0.06000
C1972       C  0.98950439  0.28282948  0.39916548    -0.13600
Br1973     Br  0.44420034  0.20289458  0.42795625    -0.05700
Br1974     Br  0.03061989  0.31658472  0.49181801    -0.00100
Br1975     Br  0.86938152  0.31957215  0.39178373     0.00400
Br1976     Br  0.53866786  0.26957373  0.40244477    -0.04100
Br1977     Br  0.47262115  0.17557800  0.47599027     0.00500
Br1978     Br  0.00460024  0.34243156  0.44323393    -0.03300
Br1979     Br  0.89965087  0.29224448  0.43950188    -0.04200
Br1980     Br  0.00787838  0.29250818  0.35408463    -0.00200
C1981       C  0.92816432  0.81760883  0.35439163     0.80100
N1982       N  0.89984220  0.80139740  0.34496352    -0.78200
C1983       C  0.88703093  0.81358424  0.32581831     0.82500
N1984       N  0.90267864  0.84201717  0.31604914    -0.78200
C1985       C  0.93122376  0.85807242  0.32530931     0.82600
N1986       N  0.94383987  0.84592745  0.34448370    -0.79900
C1987       C  0.88786575  0.86228182  0.18007721     0.80100
N1988       N  0.91506930  0.87904029  0.19035345    -0.78200
C1989       C  0.92372046  0.86983923  0.21086573     0.82500
N1990       N  0.90448803  0.84449520  0.22130039    -0.78200
C1991       C  0.87824040  0.82661526  0.21087903     0.82600
N1992       N  0.86951199  0.83595674  0.19036370    -0.79900
C1993       C  0.66088477  0.85156135  0.36034762     0.80100
N1994       N  0.67786988  0.82533589  0.34923588    -0.78200
C1995       C  0.66975718  0.81895255  0.32824780     0.82500
N1996       N  0.64471169  0.83921437  0.31825435    -0.78200
C1997       C  0.62625281  0.86423368  0.32950558     0.82600
N1998       N  0.63481210  0.87076987  0.35045196    -0.79900
C1999       C  0.92912020  0.62106740  0.18207833     0.80100
N2000       N  0.90117886  0.63801895  0.19138754    -0.78200
C2001       C  0.89044539  0.62881305  0.21157115     0.82500
N2002       N  0.90732455  0.60206024  0.22236839    -0.78200
C2003       C  0.93543645  0.58524698  0.21316259     0.82600
N2004       N  0.94634456  0.59502991  0.19316147    -0.79900
C2005       C  0.94811200  0.88863676  0.31477252     0.42300
N2006       N  0.48323890  0.93229733  0.30847623     0.01200
C2007       C  0.48585264  0.53811581  0.21688498    -0.06700
H2008       H  0.49597868  0.90363253  0.20082719     0.06700
C2009       C  0.61265043  0.90374198  0.24566207    -0.07000
Co2010     Co  0.96168929  0.97284123  0.26883066     0.74200
N2011       N  0.48838096  0.93414374  0.23005342    -0.26200
Co2012     Co  0.52915187  0.97168602  0.23091609     0.74100
C2013       C  0.60045928  0.88712263  0.22577977     0.42400
N2014       N  0.58760568  0.93083282  0.29630808     0.00800
N2015       N  0.56713812  0.93169290  0.23265553     0.00900
N2016       N  0.94188918  0.53847389  0.24190145    -0.47100
H2017       H  0.91403118  0.90102606  0.28484872     0.06700
N2018       N  0.96322429  0.93401300  0.24484900     0.01200
N2019       N  0.56944822  0.50916008  0.23252775     0.00900
C2020       C  0.60766398  0.54924463  0.22406624     0.42500
N2021       N  0.56267925  0.93143982  0.31126645    -0.25700
C2022       C  0.93779437  0.53695296  0.29653721    -0.06600
N2023       N  0.47707941  0.90590101  0.32226141    -0.46800
N2024       N  0.57817161  0.53223044  0.21712618    -0.47000
C2025       C  0.94756527  0.55202328  0.31731499     0.42300
N2026       N  0.96464456  0.51196844  0.24531790     0.01200
N2027       N  0.56300643  0.50880983  0.31142911    -0.25700
N2028       N  0.95987387  0.93338220  0.29256475    -0.26200
N2029       N  0.58841930  0.50875179  0.29672998     0.00800
H2030       H  0.55335129  0.54166283  0.33947848     0.06700
H2031       H  0.64064403  0.53844878  0.25465657     0.06700
N2032       N  0.49044709  0.51125226  0.23088908    -0.26200
N2033       N  0.59046759  0.93123580  0.24858109    -0.25800
N2034       N  0.48357453  0.50963710  0.30971126     0.01200
C2035       C  0.94832315  0.89218072  0.22308752     0.42600
C2036       C  0.56988481  0.90582444  0.32592006    -0.07100
N2037       N  0.59229077  0.50901693  0.24869407    -0.25800
H2038       H  0.63506247  0.89700047  0.25581029     0.06700
N2039       N  0.93858575  0.90948350  0.24120062    -0.47100
H2040       H  0.55506822  0.90075499  0.34055918     0.06700
C2041       C  0.60182556  0.55198714  0.31763628     0.42400
C2042       C  0.93652530  0.90665980  0.29516997    -0.06600
Co2043     Co  0.52312114  0.97069623  0.31063032     0.73800
N2044       N  0.61168956  0.90567751  0.29974285    -0.46800
C2045       C  0.95387762  0.55611749  0.22430363     0.42700
N2046       N  0.47578273  0.53348372  0.32485336    -0.46800
Co2047     Co  0.59053657  0.97016860  0.27252363     0.73900
C2048       C  0.61718770  0.53391608  0.24493874    -0.07100
C2049       C  0.48094619  0.90891409  0.21533752    -0.06700
N2050       N  0.96114417  0.51062170  0.29332275    -0.26200
N2051       N  0.57233828  0.90582559  0.21844756    -0.47000
H2052       H  0.50236395  0.54372688  0.20300169     0.06700
C2053       C  0.56925364  0.53532985  0.32547163    -0.07100
Cl2054     Cl  0.52613434  0.97147166  0.27073839    -0.50100
C2055       C  0.60211365  0.88842479  0.31794411     0.42500
H2056       H  0.91514152  0.54290848  0.28639231     0.06700
N2057       N  0.61226342  0.53423139  0.29985142    -0.46800
C2058       C  0.62429461  0.82271079  0.18319099     0.80100
N2059       N  0.65224444  0.80551438  0.19253527    -0.78200
C2060       C  0.66287919  0.81473323  0.21270716     0.82500
N2061       N  0.64577279  0.84118060  0.22337183    -0.78200
C2062       C  0.61788149  0.85818868  0.21419328     0.82600
N2063       N  0.60705032  0.84890555  0.19411752    -0.79900
C2064       C  0.89020938  0.58824860  0.36049077     0.80100
N2065       N  0.87254438  0.61410673  0.34931064    -0.78200
C2066       C  0.88096681  0.62103340  0.32841588     0.82500
N2067       N  0.90644197  0.60146855  0.31859451    -0.78200
C2068       C  0.92490757  0.57632334  0.32964690     0.82600
N2069       N  0.91638898  0.56922316  0.35056520    -0.79900
C2070       C  0.63090949  0.62218899  0.35559752     0.80100
N2071       N  0.65780847  0.63733976  0.34434825    -0.78200
C2072       C  0.66685435  0.62460172  0.32468056     0.82500
N2073       N  0.64883354  0.59665335  0.31609984    -0.78200
C2074       C  0.62146963  0.58168187  0.32715620     0.82600
N2075       N  0.61251891  0.59440899  0.34692921    -0.79900
C2076       C  0.65896452  0.58245275  0.17711075     0.80100
N2077       N  0.67976034  0.60773868  0.18675399    -0.78200
C2078       C  0.67627259  0.61464543  0.20820891     0.82500
N2079       N  0.65263270  0.59562191  0.22009408    -0.78200
C2080       C  0.63092555  0.57140085  0.21056573     0.82600
N2081       N  0.63417191  0.56475861  0.18908889    -0.79900
C2082       C  0.85499234  0.80296310  0.22326199     0.42300
N2083       N  0.81375170  0.76525293  0.23023549     0.01200
C2084       C  0.71029749  0.76267597  0.32319677    -0.06700
H2085       H  0.84556233  0.74641225  0.33686975     0.06700
C2086       C  0.84325196  0.63302400  0.29431034    -0.07000
Co2087     Co  0.77447131  0.78556963  0.27035260     0.74200
N2088       N  0.81300385  0.75798724  0.30905037    -0.26200
Co2089     Co  0.77557221  0.71754136  0.30803396     0.74100
C2090       C  0.85790530  0.64356908  0.31511763     0.42400
N2091       N  0.81745995  0.65957999  0.24271797     0.00800
N2092       N  0.81517047  0.67878499  0.30696386     0.00900
N2093       N  0.70960304  0.80577086  0.29756929    -0.47100
H2094       H  0.84354716  0.83526036  0.25397266     0.06700
N2095       N  0.81309881  0.78407763  0.29467519     0.01200
N2096       N  0.73834636  0.67715796  0.30588954     0.00900
C2097       C  0.69585072  0.64145478  0.31298695     0.42500
N2098       N  0.81656038  0.68527433  0.22804926    -0.25700
C2099       C  0.70943743  0.80840221  0.24324387    -0.06600
N2100       N  0.83776399  0.77401550  0.21546864    -0.46800
N2101       N  0.71288468  0.67083364  0.32002507    -0.47000
C2102       C  0.69285072  0.79701710  0.22323912     0.42300
N2103       N  0.73502114  0.78204067  0.29392096     0.01200
N2104       N  0.73978487  0.68178656  0.22717533    -0.25700
N2105       N  0.81334506  0.78775950  0.24664364    -0.26200
N2106       N  0.74001851  0.65650235  0.24210386     0.00800
H2107       H  0.71094480  0.68742462  0.19712114     0.06700
H2108       H  0.70750927  0.60661765  0.28318951     0.06700
N2109       N  0.73596125  0.75651153  0.30862767    -0.26200
N2110       N  0.81665830  0.65602288  0.29073118    -0.25800
N2111       N  0.73651252  0.76231781  0.23005825     0.01200
C2112       C  0.85638554  0.79601824  0.31586900     0.42600
C2113       C  0.84301603  0.67999507  0.21392598    -0.07100
N2114       N  0.73925779  0.65346670  0.29012076    -0.25800
H2115       H  0.84964155  0.61008792  0.28442659     0.06700
N2116       N  0.83884501  0.80764091  0.29815619    -0.47100
H2117       H  0.84849657  0.69616667  0.19981831     0.06700
C2118       C  0.70081181  0.63896005  0.21935639     0.42400
C2119       C  0.83879245  0.81229033  0.24376786    -0.06600
Co2120     Co  0.77656197  0.72379645  0.22837366     0.73800
N2121       N  0.84354246  0.63646915  0.23946895    -0.46800
C2122       C  0.69242162  0.79500050  0.31556605     0.42700
N2123       N  0.71092196  0.76839475  0.21576529    -0.46800
Co2124     Co  0.77838189  0.65574215  0.26640332     0.73900
C2125       C  0.71306605  0.62963603  0.29319314    -0.07100
C2126       C  0.83933555  0.76329507  0.32319237    -0.06700
N2127       N  0.73626238  0.78554041  0.24612413    -0.26200
N2128       N  0.83878604  0.67165454  0.32227628    -0.47000
H2129       H  0.70560309  0.74723050  0.33769413     0.06700
C2130       C  0.71597050  0.67282004  0.21188832    -0.07100
Cl2131     Cl  0.77621805  0.72065609  0.26825958    -0.50100
C2132       C  0.86076528  0.64772631  0.22164316     0.42500
H2133       H  0.70311508  0.83085066  0.25353767     0.06700
N2134       N  0.71710083  0.63047970  0.23804980    -0.46800
C2135       C  0.75466776  0.96416305  0.49752440     0.02100
C2136       C  0.78311602  0.98933435  0.49843879     0.02100
C2137       C  0.79681354  0.99937709  0.51873324    -0.18400
C2138       C  0.78309856  0.98520760  0.53806881     0.02100
C2139       C  0.75333418  0.96183459  0.53709936     0.02100
C2140       C  0.73934760  0.95220399  0.51694086    -0.18400
H2141       H  0.71735950  0.93341366  0.51633501     0.04100
H2142       H  0.82029987  0.51878316  0.51905280     0.04100
C2143       C  0.54460023  0.73258342  0.03829005     0.02100
C2144       C  0.52247321  0.70169250  0.03781598     0.02100
C2145       C  0.01200937  0.68767319  0.01773809    -0.18400
C2146       C  0.52234069  0.70376318  0.99821585     0.02100
C2147       C  0.54559342  0.73370856  0.99871926     0.02100
C2148       C  0.55577952  0.74799933  0.01873788    -0.18400
H2149       H  0.57296411  0.77133266  0.01909600     0.04100
H2150       H  0.99496365  0.66424781  0.01729412     0.04100
C2151       C  0.55001823  0.71060650  0.50022566     0.02100
C2152       C  0.52075976  0.73462853  0.49931207     0.00900
C2153       C  0.50518511  0.74611237  0.51872113    -0.18400
C2154       C  0.51783964  0.73449129  0.53893571     0.02100
C2155       C  0.54620249  0.70939566  0.53980131     0.02100
C2156       C  0.56231627  0.69858224  0.52042191    -0.18400
H2157       H  0.58454630  0.68012206  0.52106426     0.04100
H2158       H  0.98308569  0.76473687  0.51810917     0.04100
C2159       C  0.76543958  0.99486550  0.03825048     0.02100
C2160       C  0.78959314  0.96675293  0.04351653     0.02100
C2161       C  0.80611596  0.94797736  0.02688265    -0.18400
C2162       C  0.80219573  0.95945571  0.00581268     0.02100
C2163       C  0.78099573  0.98757856  0.99983564     0.02100
C2164       C  0.76067583  0.00422196  0.01625641    -0.18400
H2165       H  0.74126579  0.52556514  0.01103684     0.04100
H2166       H  0.82311387  0.92509420  0.03041095     0.04100
C2167       C  0.87045042  0.87416319  0.85210336     0.80100
N2168       N  0.85581809  0.84578786  0.84163290    -0.78200
C2169       C  0.87114822  0.83259238  0.82346045     0.82500
N2170       N  0.90103355  0.84805299  0.81555857    -0.78200
C2171       C  0.91563556  0.87659734  0.82573571     0.82600
N2172       N  0.90049241  0.88943786  0.84407326    -0.79900
C2173       C  0.91811655  0.60313911  0.86097659     0.80100
N2174       N  0.89159200  0.62110696  0.85058795    -0.78200
C2175       C  0.88287767  0.61238319  0.82995157     0.82500
N2176       N  0.90156147  0.58663469  0.81960936    -0.78200
C2177       C  0.92730575  0.56800798  0.82996249     0.82600
N2178       N  0.93587143  0.57658699  0.85058702    -0.79900
C2179       C  0.68806467  0.56142969  0.85421180     0.80100
N2180       N  0.66006413  0.54489335  0.84438738    -0.78200
C2181       C  0.64545369  0.55926504  0.82614249     0.82500
N2182       N  0.65943508  0.58954348  0.81743971    -0.78200
C2183       C  0.68731266  0.60588320  0.82708302     0.82600
N2184       N  0.70088844  0.59212673  0.84550219    -0.79900
C2185       C  0.65071225  0.83378545  0.86160989     0.80100
N2186       N  0.63181457  0.85969665  0.85137553    -0.78200
C2187       C  0.63775645  0.86682756  0.83019889     0.82500
N2188       N  0.66198725  0.84727008  0.81908389    -0.78200
C2189       C  0.68198207  0.82233263  0.82939244     0.82600
N2190       N  0.67600831  0.81536271  0.85059871    -0.79900
C2191       C  0.64116031  0.60561932  0.67937357     0.80100
N2192       N  0.66729273  0.62373196  0.68995629    -0.78200
C2193       C  0.67524494  0.61528761  0.71077265     0.82500
N2194       N  0.65642760  0.58946432  0.72108220    -0.78200
C2195       C  0.63124701  0.57049838  0.71045233     0.82600
N2196       N  0.62328348  0.57892191  0.68968219    -0.79900
C2197       C  0.87568383  0.55581076  0.68522829     0.80100
N2198       N  0.90339792  0.54039749  0.69562853    -0.78200
C2199       C  0.91506076  0.55355197  0.71475810     0.82500
N2200       N  0.89882265  0.58241796  0.72364318    -0.78200
C2201       C  0.87073726  0.59794846  0.71347956     0.82600
N2202       N  0.85936237  0.58474027  0.69415786    -0.79900
C2203       C  0.85634079  0.80080315  0.81298792     0.42300
N2204       N  0.82359812  0.75518510  0.80709902     0.01200
C2205       C  0.82147061  0.64765978  0.71553179    -0.06700
H2206       H  0.81531643  0.78131318  0.69826357     0.06700
C2207       C  0.69591576  0.78446716  0.74395042    -0.07000
Co2208     Co  0.84596924  0.71397352  0.76779708     0.74200
N2209       N  0.82067744  0.75223564  0.72832144    -0.26200
Co2210     Co  0.77893622  0.71545837  0.72941028     0.74100
C2211       C  0.70795960  0.80133346  0.72408323     0.42400
N2212       N  0.71990862  0.75752565  0.79477584     0.00800
N2213       N  0.74110342  0.75623269  0.73082848     0.00900
N2214       N  0.86482584  0.64693964  0.74091260    -0.47100
H2215       H  0.89170172  0.78873570  0.78352809     0.06700
N2216       N  0.84546694  0.75220465  0.74339677     0.01200
N2217       N  0.73745789  0.67838358  0.73099949     0.00900
C2218       C  0.69911706  0.63795856  0.72344539     0.42500
N2219       N  0.74489178  0.75640317  0.80969413    -0.25700
C2220       C  0.86935076  0.64995116  0.79602695    -0.06600
N2221       N  0.82802357  0.78251395  0.82037547    -0.46800
N2222       N  0.72841694  0.65479813  0.71597293    -0.47000
C2223       C  0.85968191  0.63557120  0.81703495     0.42300
N2224       N  0.84244844  0.67387153  0.74403571     0.01200
N2225       N  0.74369468  0.67921360  0.80997409    -0.25700
N2226       N  0.84735294  0.75425994  0.79141203    -0.26200
N2227       N  0.71794724  0.67923997  0.79546988     0.00800
H2228       H  0.75370776  0.64748071  0.83840279     0.06700
H2229       H  0.66688673  0.64948588  0.75412078     0.06700
N2230       N  0.81688488  0.67481266  0.72939566    -0.26200
N2231       N  0.71783505  0.75677304  0.74680334    -0.25800
N2232       N  0.82323824  0.67735506  0.80860193     0.01200
C2233       C  0.86286626  0.79189795  0.72082324     0.42600
C2234       C  0.73795688  0.78147595  0.82459527    -0.07100
N2235       N  0.71488462  0.67892842  0.74730426    -0.25800
H2236       H  0.67374147  0.79133871  0.75423053     0.06700
N2237       N  0.87116879  0.77550127  0.73952075    -0.47100
H2238       H  0.75276517  0.78576306  0.83932532     0.06700
C2239       C  0.70457636  0.63690823  0.81722700     0.42400
C2240       C  0.86946482  0.78220319  0.79385869    -0.06600
Co2241     Co  0.78398708  0.71696123  0.80924224     0.73800
N2242       N  0.69578661  0.78252071  0.79860172    -0.46800
C2243       C  0.85316391  0.62921871  0.72324255     0.42700
N2244       N  0.83126037  0.65421980  0.82418034    -0.46800
Co2245     Co  0.71698643  0.71806233  0.77106692     0.73900
C2246       C  0.69003676  0.65387915  0.74411175    -0.07100
C2247       C  0.82963584  0.77628708  0.71309062    -0.06700
N2248       N  0.84577238  0.67595088  0.79230918    -0.26200
N2249       N  0.73597832  0.78243954  0.71664999    -0.47000
H2250       H  0.80506911  0.64203080  0.70161081     0.06700
C2251       C  0.73750977  0.65339523  0.82443488    -0.07100
Cl2252     Cl  0.78147565  0.71601447  0.76936736    -0.50100
C2253       C  0.70574556  0.79914370  0.81695605     0.42500
H2254       H  0.89227163  0.64404172  0.78613159     0.06700
N2255       N  0.69382578  0.65405351  0.79916896    -0.46800
C2256       C  0.92104673  0.83114301  0.67887436     0.80100
N2257       N  0.93877847  0.85615523  0.69060896    -0.78200
C2258       C  0.93111900  0.86085785  0.71180917     0.82500
N2259       N  0.90616565  0.84005354  0.72137070    -0.78200
C2260       C  0.88731627  0.81606349  0.70962323     0.82600
N2261       N  0.89509377  0.81122618  0.68840573    -0.79900
C2262       C  0.68250397  0.87045709  0.68376173     0.80100
N2263       N  0.65542560  0.88686863  0.69443625    -0.78200
C2264       C  0.64590140  0.87567791  0.71449228     0.82500
N2265       N  0.66349831  0.84814365  0.72378989    -0.78200
C2266       C  0.69066996  0.83175982  0.71343389     0.82600
N2267       N  0.70017186  0.84279227  0.69330557    -0.79900
C2268       C  0.95334509  0.88414256  0.72509116     0.42300
N2269       N  0.99390611  0.92201213  0.73303698     0.01200
C2270       C  0.59597992  0.92271461  0.82651186    -0.06700
H2271       H  0.95862690  0.94241144  0.83828066     0.06700
C2272       C  0.96596254  0.55503101  0.79658830    -0.07000
Co2273     Co  0.53260168  0.90127930  0.77318812     0.74200
N2274       N  0.99323639  0.92957845  0.81161162    -0.26200
Co2275     Co  0.53164877  0.96933106  0.81128075     0.74100
C2276       C  0.95068047  0.54495962  0.81727175     0.42400
N2277       N  0.99085284  0.52754072  0.74548098     0.00800
N2278       N  0.99300607  0.50886329  0.80974588     0.00900
N2279       N  0.59671052  0.88058943  0.80036137    -0.47100
H2280       H  0.96414322  0.85093311  0.75567328     0.06700
N2281       N  0.99333328  0.90352272  0.79722405     0.01200
N2282       N  0.57042722  0.50843856  0.80907790     0.00900
C2283       C  0.61471529  0.54259969  0.81557354     0.42500
N2284       N  0.99158034  0.50143763  0.73114891    -0.25700
C2285       C  0.59930344  0.87923982  0.74586311    -0.06600
N2286       N  0.97053262  0.91351337  0.71787850    -0.46800
N2287       N  0.59684163  0.51374437  0.82289006    -0.47000
C2288       C  0.61586287  0.89195651  0.72594106     0.42300
N2289       N  0.57137250  0.90444482  0.79697224     0.01200
N2290       N  0.56842342  0.50416146  0.73023895    -0.25700
N2291       N  0.99403816  0.89906956  0.74923438    -0.26200
N2292       N  0.56881624  0.52934303  0.74513802     0.00800
H2293       H  0.59720128  0.49769046  0.70030729     0.06700
H2294       H  0.60309849  0.57758742  0.78573962     0.06700
N2295       N  0.57042840  0.92950589  0.81192524    -0.26200
N2296       N  0.99216701  0.53151695  0.79339983    -0.25800
N2297       N  0.57107053  0.92494648  0.73313517     0.01200
C2298       C  0.94796222  0.89308275  0.81710889     0.42600
C2299       C  0.96420867  0.50513806  0.71759808    -0.07100
N2300       N  0.56979866  0.53215935  0.79323157    -0.25800
H2301       H  0.96013000  0.57790822  0.78646614     0.06700
N2302       N  0.96645559  0.88099614  0.79992116    -0.47100
H2303       H  0.95822289  0.48792118  0.70406146     0.06700
C2304       C  0.60880946  0.54558584  0.72256862     0.42400
C2305       C  0.96891852  0.87433339  0.74578445    -0.06600
Co2306     Co  0.53112503  0.96314337  0.73166244     0.73800
N2307       N  0.96369929  0.54962766  0.74243470    -0.46800
C2308       C  0.61370971  0.89064153  0.81849473     0.42700
N2309       N  0.59687763  0.92020377  0.71887269    -0.46800
Co2310     Co  0.53039488  0.53092185  0.76928353     0.73900
C2311       C  0.59689207  0.55499477  0.79600545    -0.07100
C2312       C  0.96557620  0.92516388  0.82494618    -0.06700
N2313       N  0.57167818  0.90127465  0.74900156    -0.26200
N2314       N  0.96917471  0.51659835  0.82481781    -0.47000
H2315       H  0.60095126  0.93783654  0.84106804     0.06700
C2316       C  0.59258227  0.51237893  0.71505631    -0.07100
Cl2317     Cl  0.53136904  0.96626398  0.77144204    -0.50100
C2318       C  0.94580216  0.53685181  0.72515911     0.42500
H2319       H  0.60638081  0.85670451  0.75595761     0.06700
N2320       N  0.59247446  0.55469950  0.74110494    -0.46800
C2321       C  0.70551811  0.54701096  0.87412840     0.01200
C2322       C  0.74236648  0.55340702  0.87737171     0.04000
C2323       C  0.75794932  0.54757879  0.89764787    -0.12100
C2324       C  0.73907497  0.52902679  0.91379408     0.23300
C2325       C  0.70268406  0.52140633  0.91061278    -0.12600
C2326       C  0.68574336  0.53077184  0.89102758     0.04700
C2327       C  0.75740962  0.51766859  0.93416695     0.27100
C2328       C  0.76783775  0.98121127  0.93838230    -0.13300
C2329       C  0.78762386  0.97032906  0.95815077     0.05200
C2330       C  0.77961795  0.99697501  0.97585513    -0.09300
C2331       C  0.77512188  0.53355951  0.97003898     0.06000
C2332       C  0.76198263  0.54349958  0.95012344    -0.13600
Br2333     Br  0.67573507  0.49998564  0.93384717    -0.05700
Br2334     Br  0.77347903  0.56702944  0.85383324    -0.00100
Br2335     Br  0.84787746  0.89337372  0.96744474     0.00400
Br2336     Br  0.74501697  0.59198481  0.94602888    -0.04100
Br2337     Br  0.63537985  0.52197324  0.88823394     0.00500
Br2338     Br  0.80335714  0.56968318  0.90387792    -0.03300
Br2339     Br  0.75015327  0.94967407  0.91561991    -0.04200
Br2340     Br  0.78999733  0.57077118  0.98986190    -0.00200
C2341       C  0.85516853  0.88675386  0.87290100     0.01200
C2342       C  0.84717810  0.92304521  0.87603026     0.04000
C2343       C  0.83472372  0.93526163  0.89621969    -0.12100
C2344       C  0.82851271  0.91126979  0.91379435     0.23300
C2345       C  0.83570771  0.87401185  0.90994237    -0.12600
C2346       C  0.84965568  0.86244196  0.88991268     0.04700
C2347       C  0.81870725  0.92594344  0.93617671     0.27100
C2348       C  0.84669392  0.95319618  0.94775104    -0.13300
C2349       C  0.84486360  0.96042866  0.97336745     0.05200
C2350       C  0.81476027  0.94051354  0.98788032    -0.09300
C2351       C  0.78563784  0.91462866  0.97660867     0.06000
C2352       C  0.78746530  0.90724577  0.95100311    -0.13600
Br2353     Br  0.82952240  0.83632050  0.93103495    -0.05700
Br2354     Br  0.85276568  0.95629567  0.85221048    -0.00100
Br2355     Br  0.87708727  0.99354823  0.98670208     0.00400
Br2356     Br  0.75284900  0.87356032  0.93992112    -0.04100
Br2357     Br  0.86470976  0.81308180  0.88630948     0.00500
Br2358     Br  0.82703172  0.98573132  0.89876025    -0.03300
Br2359     Br  0.89053788  0.96661370  0.93390288    -0.04200
Br2360     Br  0.74726328  0.89570759  0.99359659    -0.00200
C2361       C  0.55931711  0.69311092  0.56043752     0.01200
C2362       C  0.58442056  0.71121556  0.57342206     0.04000
C2363       C  0.59718265  0.69541801  0.59259841    -0.12100
C2364       C  0.58638542  0.66064751  0.59848450     0.23300
C2365       C  0.56297996  0.64159959  0.58500741    -0.12600
C2366       C  0.54959443  0.65764614  0.56604922     0.04700
C2367       C  0.59976845  0.64441630  0.61891324     0.27100
C2368       C  0.63307935  0.62707632  0.61951689    -0.13300
C2369       C  0.64700283  0.61467707  0.63932006     0.05200
C2370       C  0.62752136  0.61920989  0.65851459    -0.09300
C2371       C  0.59432748  0.63672721  0.65789292     0.06000
C2372       C  0.58012831  0.64848641  0.63809763    -0.13600
Br2373     Br  0.54999374  0.59312383  0.59242660    -0.05700
Br2374     Br  0.60461152  0.75582730  0.56398928    -0.00100
Br2375     Br  0.69283657  0.59186326  0.64032055     0.00400
Br2376     Br  0.53352593  0.66989836  0.63715075    -0.04100
Br2377     Br  0.51963260  0.62974788  0.54730580     0.00500
Br2378     Br  0.63016958  0.72108068  0.61078873    -0.03300
Br2379     Br  0.65929128  0.62003028  0.59313538    -0.04200
Br2380     Br  0.56948920  0.64713305  0.68441471    -0.00200
C2381       C  0.93497207  0.82046273  0.65756351     0.01200
C2382       C  0.96875164  0.80413237  0.65627012     0.04000
C2383       C  0.98153765  0.79170170  0.63633739    -0.12100
C2384       C  0.96054110  0.79516637  0.61763445     0.23300
C2385       C  0.92711187  0.81212813  0.61879835    -0.12600
C2386       C  0.91437349  0.82483632  0.63875219     0.04700
C2387       C  0.97362802  0.78042125  0.59687360     0.27100
C2388       C  0.99755179  0.80029937  0.58416914    -0.13300
C2389       C  0.01139028  0.78556048  0.56506597     0.05200
C2390       C  0.50191953  0.75046813  0.55873065    -0.09300
C2391       C  0.47552992  0.73201965  0.57052083     0.06000
C2392       C  0.96226683  0.74643949  0.58988705    -0.13600
Br2393     Br  0.89884061  0.81768990  0.59302971    -0.05700
Br2394     Br  0.99701160  0.79701337  0.68197988    -0.00100
Br2395     Br  0.04137452  0.81483053  0.54704705     0.00400
Br2396     Br  0.92839550  0.71977040  0.60693026    -0.04100
Br2397     Br  0.86920744  0.84901313  0.64030585     0.00500
Br2398     Br  0.52769648  0.76934206  0.63461328    -0.03300
Br2399     Br  0.01109208  0.84793499  0.59299395    -0.04200
Br2400     Br  0.45408602  0.68947739  0.55894128    -0.00200
C2401       C  0.63750614  0.81968340  0.88235307     0.01200
C2402       C  0.62072323  0.78586052  0.88273600     0.04000
C2403       C  0.60662393  0.77241793  0.90209579    -0.12100
C2404       C  0.60716661  0.79357161  0.92084728     0.23300
C2405       C  0.62350016  0.82756464  0.92048257    -0.12600
C2406       C  0.63919861  0.84037699  0.90131321     0.04700
C2407       C  0.59151877  0.77935843  0.94107497     0.27100
C2408       C  0.55610555  0.78722805  0.94659982    -0.13300
C2409       C  0.54159726  0.77376761  0.96592373     0.05200
C2410       C  0.56127105  0.74966449  0.97879809    -0.09300
C2411       C  0.59718692  0.74282191  0.97347215     0.06000
C2412       C  0.61226837  0.75789241  0.95479441    -0.13600
Br2413     Br  0.62457574  0.85619243  0.94634547    -0.05700
Br2414     Br  0.61484155  0.75865879  0.85646387    -0.00100
Br2415     Br  0.49709992  0.79250119  0.97601736     0.00400
Br2416     Br  0.66163126  0.74956281  0.94791212    -0.04100
Br2417     Br  0.66387943  0.88562155  0.90112063     0.00500
Br2418     Br  0.58719848  0.72462998  0.90312056    -0.03300
Br2419     Br  0.52764756  0.81659910  0.92766535    -0.04200
Br2420     Br  0.62684049  0.71435043  0.99208123    -0.00200
C2421       C  0.00822282  0.68853043  0.97768368     0.01200
C2422       C  0.52860213  0.66387904  0.96571754     0.04000
C2423       C  0.51569819  0.65031637  0.94601047    -0.12100
C2424       C  0.98122204  0.65917126  0.93897103     0.23300
C2425       C  0.95980005  0.68170285  0.95159969    -0.12600
C2426       C  0.97312338  0.69625498  0.97089447     0.04700
C2427       C  0.96653406  0.64383385  0.91875954     0.27100
C2428       C  0.96775729  0.66385464  0.89950229    -0.13300
C2429       C  0.95160266  0.65056152  0.88067375     0.05200
C2430       C  0.93324806  0.61758488  0.88116708    -0.09300
C2431       C  0.93221185  0.59746513  0.90040506     0.06000
C2432       C  0.94908834  0.61041369  0.91913832    -0.13600
Br2433     Br  0.91169289  0.69187017  0.94249829    -0.05700
Br2434     Br  0.57186433  0.64483396  0.97761094    -0.00100
Br2435     Br  0.95618754  0.67686480  0.85394394     0.00400
Br2436     Br  0.94818646  0.58264165  0.94542506    -0.04100
Br2437     Br  0.94173131  0.72443594  0.98846751     0.00500
Br2438     Br  0.54495530  0.61923047  0.92872563    -0.03300
Br2439     Br  0.99132865  0.70971114  0.89907569    -0.04200
Br2440     Br  0.90687054  0.55269422  0.90117790    -0.00200
C2441       C  0.80026203  0.99496028  0.55910938     0.01200
C2442       C  0.78478318  0.51795911  0.57380111     0.04000
C2443       C  0.79917067  0.52416752  0.59443978    -0.12100
C2444       C  0.83165867  0.50837309  0.60053066     0.23300
C2445       C  0.84813071  0.98714893  0.58564023    -0.12600
C2446       C  0.83416352  0.98136544  0.56474465     0.04700
C2447       C  0.84736585  0.51755374  0.62193299     0.27100
C2448       C  0.86591227  0.55011984  0.62436813    -0.13300
C2449       C  0.87480305  0.56271211  0.64509595     0.05200
C2450       C  0.86556585  0.54263254  0.66354387    -0.09300
C2451       C  0.84925956  0.50884053  0.66104466     0.06000
C2452       C  0.84031012  0.49626937  0.64026291    -0.13600
Br2453     Br  0.89264473  0.96565264  0.59397905    -0.05700
Br2454     Br  0.74262652  0.54327300  0.56507043    -0.00100
Br2455     Br  0.90040715  0.60718481  0.64822063     0.00400
Br2456     Br  0.81817045  0.94964251  0.63651201    -0.04100
Br2457     Br  0.86293244  0.95723323  0.54347684     0.00500
Br2458     Br  0.77472169  0.55504238  0.61444549    -0.03300
Br2459     Br  0.87905852  0.57743768  0.59914375    -0.04200
Br2460     Br  0.83813739  0.48032888  0.68614170    -0.00200
C2461       C  0.69141487  0.88193891  0.66154118     0.01200
C2462       C  0.68447028  0.85913673  0.64389140     0.04000
C2463       C  0.69026962  0.87127783  0.62262275    -0.12100
C2464       C  0.70379803  0.90598064  0.61892282     0.23300
C2465       C  0.71036244  0.92883939  0.63656492    -0.12600
C2466       C  0.70469493  0.91668649  0.65780346     0.04700
C2467       C  0.71404081  0.91750169  0.59676719     0.27100
C2468       C  0.74593243  0.90478266  0.58768455    -0.13300
C2469       C  0.75737875  0.91762375  0.56753169     0.05200
C2470       C  0.73820435  0.94475403  0.55683447    -0.09300
C2471       C  0.70446404  0.95477327  0.56481371     0.06000
C2472       C  0.69264192  0.94152118  0.58491293    -0.13600
Br2473     Br  0.72669422  0.97707194  0.63160649    -0.05700
Br2474     Br  0.66667381  0.81135342  0.64878643    -0.00100
Br2475     Br  0.79722689  0.89519949  0.55361006     0.00400
Br2476     Br  0.64736409  0.95639511  0.59638364    -0.04100
Br2477     Br  0.71727530  0.94688186  0.68186735     0.00500
Br2478     Br  0.67908681  0.84072269  0.59845372    -0.03300
Br2479     Br  0.77441557  0.87005014  0.60300084    -0.04200
Br2480     Br  0.67368559  0.98519933  0.54789893    -0.00200
C2481       C  0.74417636  0.51465073  0.05471146     0.01200
C2482       C  0.70754220  0.50798517  0.05794685     0.04000
C2483       C  0.69034458  0.52085373  0.07669261    -0.12100
C2484       C  0.70976549  0.53981759  0.09248355     0.23300
C2485       C  0.74554526  0.54875698  0.08836000    -0.12600
C2486       C  0.76186485  0.53795513  0.06899519     0.04700
C2487       C  0.69295046  0.55009269  0.11346369     0.27100
C2488       C  0.68212730  0.58569949  0.11725766    -0.13300
C2489       C  0.66910822  0.59587336  0.13772332     0.05200
C2490       C  0.66716663  0.57064970  0.15468455    -0.09300
C2491       C  0.67619590  0.53450740  0.15049722     0.06000
C2492       C  0.68911182  0.52439799  0.13001394    -0.13600
Br2493     Br  0.77284725  0.57457901  0.10962096    -0.05700
Br2494     Br  0.68132628  0.98337321  0.03723842    -0.00100
Br2495     Br  0.65261628  0.64414836  0.14230603     0.00400
Br2496     Br  0.71366619  0.97959695  0.12609027    -0.04100
Br2497     Br  0.80648408  0.55888909  0.06071139     0.00500
Br2498     Br  0.64031289  0.51219642  0.08104905    -0.03300
Br2499     Br  0.68579856  0.62070665  0.09444077    -0.04200
Br2500     Br  0.67314297  0.49869855  0.17299123    -0.00200
C2501       C  0.56774932  0.69738336  0.48024745     0.01200
C2502       C  0.58786724  0.72098846  0.46728378     0.04000
C2503       C  0.59916792  0.71036429  0.44663399    -0.12100
C2504       C  0.59261968  0.67522033  0.43954926     0.23300
C2505       C  0.57692556  0.65020916  0.45359793    -0.12600
C2506       C  0.56455594  0.66115966  0.47392397     0.04700
C2507       C  0.60322150  0.66381269  0.41763874     0.27100
C2508       C  0.57775375  0.66281223  0.40097549    -0.13300
C2509       C  0.58699000  0.64971433  0.38052910     0.05200
C2510       C  0.62148419  0.63648394  0.37690727    -0.09300
C2511       C  0.64716072  0.63776861  0.39352950     0.06000
C2512       C  0.63803053  0.65162442  0.41385070    -0.13600
Br2513     Br  0.57290780  0.60072928  0.44490039    -0.05700
Br2514     Br  0.60429913  0.76572072  0.47891846    -0.00100
Br2515     Br  0.55280667  0.65147963  0.35724600     0.00400
Br2516     Br  0.67272582  0.65290245  0.43680932    -0.04100
Br2517     Br  0.54449356  0.62576538  0.49298431     0.00500
Br2518     Br  0.62421836  0.74355352  0.42819466    -0.03300
Br2519     Br  0.52985775  0.67825408  0.40636099    -0.04200
Br2520     Br  0.69438127  0.61905995  0.38893348    -0.00200
C2521       C  0.87505063  0.57521674  0.38108010     0.01200
C2522       C  0.84257450  0.55624741  0.38074228     0.04000
C2523       C  0.82707819  0.54428258  0.40012943    -0.12100
C2524       C  0.84432407  0.55044052  0.41996362     0.23300
C2525       C  0.87656535  0.56984296  0.42035559    -0.12600
C2526       C  0.89210339  0.58187586  0.40091095     0.04700
C2527       C  0.82930718  0.53506753  0.44022560     0.27100
C2528       C  0.80752575  0.55591451  0.45372822    -0.13300
C2529       C  0.79385556  0.54131940  0.47304072     0.05200
C2530       C  0.79956195  0.00535595  0.47868459    -0.09300
C2531       C  0.82240554  0.98491821  0.46552138     0.06000
C2532       C  0.83696382  0.99981030  0.44656765    -0.13600
Br2533     Br  0.89893843  0.58049241  0.44760828    -0.05700
Br2534     Br  0.82000962  0.54516736  0.35353660    -0.00100
Br2535     Br  0.76758830  0.57175361  0.49249542     0.00400
Br2536     Br  0.86742469  0.97131995  0.42838289    -0.04100
Br2537     Br  0.93664753  0.60741005  0.40133742     0.00500
Br2538     Br  0.78180707  0.51996631  0.39965780    -0.03300
Br2539     Br  0.79619922  0.60440392  0.44549278    -0.04200
Br2540     Br  0.83689659  0.93781322  0.47450043    -0.00200
C2541       C  0.61187818  0.81225258  0.16158584     0.01200
C2542       C  0.60106606  0.77668608  0.15787859     0.04000
C2543       C  0.58895130  0.76652627  0.13737929    -0.12100
C2544       C  0.58776208  0.79170112  0.12046462     0.23300
C2545       C  0.59832829  0.82735300  0.12412554    -0.12600
C2546       C  0.61012141  0.83775126  0.14474373     0.04700
C2547       C  0.57730824  0.77973162  0.09861198     0.27100
C2548       C  0.60236078  0.76215454  0.08559649    -0.13300
C2549       C  0.59206622  0.74788299  0.06558874     0.05200
C2550       C  0.55615546  0.74978263  0.05885413    -0.09300
C2551       C  0.53181423  0.76986285  0.07126104     0.06000
C2552       C  0.54228628  0.78450567  0.09119968    -0.13600
Br2553     Br  0.59757184  0.86148326  0.10070258    -0.05700
Br2554     Br  0.60141695  0.74197772  0.18104843    -0.00100
Br2555     Br  0.62799189  0.72691005  0.04750230     0.00400
Br2556     Br  0.50889808  0.81129337  0.10842238    -0.04100
Br2557     Br  0.62530061  0.88650637  0.14953456     0.00500
Br2558     Br  0.57436128  0.71783842  0.13230549    -0.03300
Br2559     Br  0.65084782  0.75729313  0.09552689    -0.04200
Br2560     Br  0.98519807  0.78034143  0.06017963    -0.00200
C2561       C  0.00831987  0.68461476  0.05790681     0.01200
C2562       C  0.97146950  0.68586482  0.06250061     0.04000
C2563       C  0.95838192  0.67248840  0.08212873    -0.12100
C2564       C  0.98182853  0.65776795  0.09736878     0.23300
C2565       C  0.01802293  0.65362634  0.09225674    -0.12600
C2566       C  0.53106713  0.66618698  0.07231936     0.04700
C2567       C  0.96829456  0.64802804  0.11902485     0.27100
C2568       C  0.96211691  0.67520288  0.13427782    -0.13300
C2569       C  0.94809454  0.66667923  0.15465786     0.05200
C2570       C  0.94097700  0.63062641  0.16006509    -0.09300
C2571       C  0.94643826  0.60346733  0.14451564     0.06000
C2572       C  0.95978394  0.61226962  0.12397545    -0.13600
Br2573     Br  0.54948616  0.63055374  0.11261430    -0.05700
Br2574     Br  0.93798545  0.70555668  0.04226753    -0.00100
Br2575     Br  0.93991452  0.70471616  0.17514774     0.00400
Br2576     Br  0.96552703  0.57563051  0.10231667    -0.04100
Br2577     Br  0.57884899  0.65439211  0.06401810     0.00500
Br2578     Br  0.90811944  0.67469103  0.08848280    -0.03300
Br2579     Br  0.47285896  0.72432157  0.12708028    -0.04200
Br2580     Br  0.93385794  0.55432353  0.15069334    -0.00200
C2581       C  0.74205638  0.94710416  0.47700784     0.01200
C2582       C  0.72223697  0.96659377  0.46155384     0.04000
C2583       C  0.70989758  0.94971867  0.44262291    -0.12100
C2584       C  0.71622478  0.91302130  0.43924624     0.23300
C2585       C  0.73471650  0.89311161  0.45490337    -0.12600
C2586       C  0.74724066  0.90985445  0.47378979     0.04700
C2587       C  0.70260880  0.89518902  0.41943276     0.27100
C2588       C  0.66787171  0.88098412  0.41895123    -0.13300
C2589       C  0.65422324  0.86614991  0.39974296     0.05200
C2590       C  0.67572286  0.86424550  0.38114385    -0.09300
C2591       C  0.71111124  0.87712316  0.38196647     0.06000
C2592       C  0.72422484  0.89306277  0.40094628    -0.13600
Br2593     Br  0.74215718  0.84252001  0.45050966    -0.05700
Br2594     Br  0.70802390  0.01508184  0.46718395    -0.00100
Br2595     Br  0.60623112  0.84808575  0.39899164     0.00400
Br2596     Br  0.77150771  0.91320739  0.40152488    -0.04100
Br2597     Br  0.77033433  0.88076541  0.49548457     0.00500
Br2598     Br  0.68320822  0.97645989  0.42141437    -0.03300
Br2599     Br  0.63903566  0.88218693  0.44467250    -0.04200
Br2600     Br  0.74146127  0.87498789  0.35682560    -0.00200
C2601       C  0.80021419  0.95682734  0.06580747     0.01200
C2602       C  0.77791369  0.93533403  0.07882864     0.04000
C2603       C  0.79073182  0.92129236  0.09845059    -0.12100
C2604       C  0.82588016  0.92835581  0.10496319     0.23300
C2605       C  0.84791019  0.95032126  0.09230913    -0.12600
C2606       C  0.83562854  0.96352129  0.07246786     0.04700
C2607       C  0.84082373  0.91070106  0.12431111     0.27100
C2608       C  0.83868020  0.92770413  0.14447619    -0.13300
C2609       C  0.85454249  0.91184856  0.16263582     0.05200
C2610       C  0.87253493  0.87885731  0.16065294    -0.09300
C2611       C  0.87456832  0.86174855  0.14048996     0.06000
C2612       C  0.85877147  0.87773359  0.12227883    -0.13600
Br2613     Br  0.89560206  0.96106791  0.10190718    -0.05700
Br2614     Br  0.73178934  0.92078047  0.06862263    -0.00100
Br2615     Br  0.85082766  0.93511356  0.19036509     0.00400
Br2616     Br  0.86199305  0.85488057  0.09444314    -0.04100
Br2617     Br  0.86915164  0.98711073  0.05347986     0.00500
Br2618     Br  0.76100791  0.89082109  0.11603599    -0.03300
Br2619     Br  0.81417129  0.97286428  0.14703549    -0.04200
Br2620     Br  0.89986577  0.81712351  0.13779306    -0.00200
C2621       C  0.50572255  0.74796474  0.47835595     0.01200
C2622       C  0.00976905  0.78427159  0.47214275     0.04000
C2623       C  0.99667339  0.79635874  0.45210756    -0.12100
C2624       C  0.97896918  0.77255574  0.43822287     0.23300
C2625       C  0.97276869  0.73705087  0.44486528    -0.12600
C2626       C  0.48575157  0.72488687  0.46492405     0.04700
C2627       C  0.96611034  0.78499780  0.41679928     0.27100
C2628       C  0.93066363  0.79636277  0.41423387    -0.13300
C2629       C  0.91807690  0.80658916  0.39373639     0.05200
C2630       C  0.94099305  0.80559506  0.37571631    -0.09300
C2631       C  0.97658303  0.79461068  0.37834172     0.06000
C2632       C  0.98922094  0.78490685  0.39890661    -0.13600
Br2633     Br  0.44517799  0.70560021  0.42665926    -0.05700
Br2634     Br  0.03210736  0.81835946  0.49103813    -0.00100
Br2635     Br  0.86980481  0.82338068  0.39061804     0.00400
Br2636     Br  0.53850225  0.77256929  0.40273509    -0.04100
Br2637     Br  0.47287961  0.67773842  0.47473621     0.00500
Br2638     Br  0.00205896  0.84588211  0.44370311    -0.03300
Br2639     Br  0.89976835  0.79893473  0.43902192    -0.04200
Br2640     Br  0.00765925  0.79114861  0.35362772    -0.00200
loop_ 
_geom_bond_atom_site_label_1 
_geom_bond_atom_site_label_2 
_geom_bond_distance 
_geom_bond_site_symmetry_2 
_ccdc_geom_bond_type 
C1            N2   1.358       .  A
C1            N6   1.359       .  A
C1          C650   1.480       .  S
N2            C3   1.359       .  A
C3            N4   1.354       .  A
C3          C132   1.462       .  S
N4            C5   1.356       .  A
C5            N6   1.358       .  A
C5           C25   1.461       .  S
C7            N8   1.359       .  A
C7           N12   1.361       .  A
C7          C630   1.474       .  S
N8            C9   1.356       .  A
C9           N10   1.353       .  A
C9           C55   1.459       .  S
N10          C11   1.354       .  A
C11          N12   1.359       .  A
C11         C102   1.460       .  S
C13          N14   1.359       .  A
C13          N18   1.361       .  A
C13         C610   1.482       .  S
N14          C15   1.357       .  A
C15          N16   1.357       .  A
C15         C142   1.467       .  S
N16          C17   1.359       .  A
C17          N18   1.360       .  A
C17          C75   1.467       .  S
C19          N20   1.358       .  A
C19          N24   1.355       .  A
C19         C590   1.477       .  S
N20          C21   1.358       .  A
C21          N22   1.360       .  A
C21         C152   1.464       .  S
N22          C23   1.358       .  A
C23          N24   1.355       .  A
C23          C65   1.463       .  S
C25        N1363   1.348       .  A
C25          C62   1.456       .  S
N26          N43   1.324       .  A
N26        N1368   1.322       .  A
N26         Co63   2.078   1_655  S
C27          N52   1.337       .  A
C27        C1385   1.455       .  S
C27          H72   1.081   1_655  S
H28          C69   1.081       .  S
C29          N53   1.336       .  A
C29          C33   1.452       .  S
C29          H58   1.081       .  S
Co30         N48   2.087       .  S
Co30         N38   2.083       .  S
Co30        N730   2.076       .  S
Co30        N706   2.094       .  S
Co30      Cl1394   2.428       .  S
N31          C69   1.342       .  A
N31        N1358   1.319       .  A
N31         Co32   2.076   1_655  S
Co32         N35   2.072       .  S
Co32        N712   2.072   1_455  S
Co32        N699   2.079       .  S
Co32        Cl74   2.468       .  S
C33          N71   1.347       .  A
C33          C82   1.453       .  S
N34          N41   1.319       .  A
N34          N64   1.323       .  A
N34         Co67   2.082       .  S
N35          N53   1.320       .  A
N35          N71   1.323       .  A
N36          C65   1.350       .  A
N36          N46   1.326       .  A
H37          C62   1.081       .  S
N38          N59   1.323       .  A
N38        N1351   1.319       .  A
N39          N57   1.320       .  A
N39          N44   1.326       .  A
N39        Co692   2.083   1_545  S
C40          N44   1.349       .  A
C40          C68   1.458       .  S
C40         C100   1.467       .  S
N41          C56   1.346       .  A
N41         Co63   2.091       .  S
C42          N70   1.335       .  A
C42          C45   1.453       .  S
C42          H76   1.082       .  S
N43        C1345   1.348       .  A
C45        N1386   1.351       .  A
C45          C88   1.463       .  S
N46        N1372   1.321       .  A
N46        Co690   2.091   1_545  S
N47          C73   1.341       .  A
N47          N49   1.321       .  A
N47        Co723   2.080   1_545  S
N48          C62   1.339       .  A
N48        N1346   1.322       .  A
N49          N77   1.323       .  A
N49        Co727   2.088   1_545  S
H50          C73   1.081       .  S
H51          C68   1.081       .  S
N52        N1366   1.321       .  A
N52        Co692   2.074   1_645  S
N53         Co67   2.073       .  S
N54          N66   1.328       .  A
N54        N1390   1.320       .  A
N54        Co723   2.090   1_645  S
C55          N59   1.348       .  A
C55        C1389   1.457       .  S
C56          C75   1.463       .  S
C56          H60   1.081       .  S
N57          C68   1.340       .  A
N57        Co727   2.086   1_545  S
C61          N77   1.349       .  A
C61          C73   1.457       .  S
C61          C94   1.463       .  S
Co63        N707   2.078       .  S
Co63        N714   2.090   1_455  S
Co63        Cl74   2.474       .  S
N64          C75   1.347       .  A
C65        C1347   1.455       .  S
N66        C1365   1.351       .  A
Co67        N709   2.079       .  S
Co67        N717   2.085       .  S
Co67        Cl74   2.425       .  S
C69        C1375   1.457       .  S
N70        N1374   1.320       .  A
N70        Co690   2.075   1_545  S
Cl74      Co1350   2.428   1_455  S
C78          N79   1.362       .  A
C78          N83   1.356       .  A
C78         C561   1.471       .  S
N79          C80   1.358       .  A
C80          N81   1.354       .  A
C80         C122   1.462       .  S
N81          C82   1.352       .  A
C82          N83   1.353       .  A
C84          N85   1.362       .  A
C84          N89   1.364       .  A
C84         C541   1.480       .  S
N85          C86   1.357       .  A
C86          N87   1.351       .  A
C86         C110   1.462       .  S
N87          C88   1.353       .  A
C88          N89   1.361       .  A
C90          N91   1.353       .  A
C90          N95   1.361       .  A
C90         C530   1.475       .  S
N91          C92   1.354       .  A
C92          N93   1.354       .  A
C92         C117   1.454       .  S
N93          C94   1.356       .  A
C94          N95   1.360       .  A
C96          N97   1.362       .  A
C96         N101   1.363       .  A
C96         C510   1.485       .  S
N97          C98   1.359       .  A
C98          N99   1.355       .  A
C98         C138   1.465       .  S
N99         C100   1.355       .  A
C100        N101   1.360       .  A
C102        N120   1.349       .  A
C102        C139   1.453       .  S
N103        N120   1.326       .  A
N103        N125   1.321       .  A
N103       Co140   2.086       .  S
C104        N129   1.342       .  A
C104        C142   1.460       .  S
C104        H149   1.081       .  S
H105        C146   1.081       .  S
C106        N130   1.338       .  A
C106        C110   1.457       .  S
C106        H135   1.082       .  S
Co107       N125   2.077       .  S
Co107       N115   2.097       .  S
Co107       N147   2.081       .  S
Co107       N123   2.088       .  S
Co107      Cl151   2.430       .  S
N108        C146   1.337       .  A
N108        N115   1.319       .  A
N108       Co109   2.063       .  S
Co109       N112   2.079       .  S
Co109       N129   2.084       .  S
Co109       N116   2.061       .  S
Co109      Cl151   2.467       .  S
C110        N148   1.349       .  A
N111        N118   1.321       .  A
N111        N141   1.325       .  A
N111       Co144   2.087       .  S
N112        N130   1.319       .  A
N112        N148   1.326       .  A
N113        C142   1.350       .  A
N113        N123   1.325       .  A
H114        C139   1.082       .  S
N115        N136   1.326       .  A
N116        N134   1.320       .  A
N116        N121   1.320       .  A
C117        N121   1.344       .  A
C117        C145   1.458       .  S
N118        C133   1.340       .  A
N118       Co140   2.084       .  S
C119        N147   1.335       .  A
C119        C122   1.452       .  S
C119        H153   1.081       .  S
C122        N143   1.351       .  A
N123        N129   1.318       .  A
N124        C150   1.345       .  A
N124        N126   1.320       .  A
N124       Co140   2.090       .  S
N125        C139   1.336       .  A
N126        N154   1.323       .  A
N126       Co144   2.082       .  S
H127        C150   1.081       .  S
H128        C145   1.081       .  S
N130       Co144   2.083       .  S
N131        N143   1.327       .  A
N131        N147   1.322       .  A
N131       Co140   2.088       .  S
C132        N136   1.352       .  A
C132        C146   1.451       .  S
C133        C152   1.458       .  S
C133        H137   1.081       .  S
N134        C145   1.341       .  A
N134       Co144   2.086       .  S
C138        N154   1.347       .  A
C138        C150   1.461       .  S
Co140      Cl151   2.474       .  S
N141        C152   1.348       .  A
Co144      Cl151   2.430       .  S
C155        C601   1.496       .  S
C155        C156   1.424       .  A
C155        C160   1.405       .  A
C156        C550   1.496       .  S
C156        C157   1.410       .  A
C157        H822   1.085       .  S
C157        C158   1.408       .  A
C158        C461   1.497       .  S
C158        C159   1.420       .  A
C159        C490   1.492       .  S
C159        C160   1.401       .  A
C160        H161   1.085       .  S
H162        C817   1.085   1_545  S
C163        C570   1.492       .  S
C163        C164   1.422       .  A
C163        C168   1.405       .  A
C164       C1901   1.494       .  S
C164       C1485   1.405       .  A
C165        H170   1.085       .  S
C165       C1484   1.405       .  A
C165       C1486   1.403   1_554  A
C166       C1761   1.491       .  S
C166        C167   1.420       .  A
C166       C1485   1.403   1_556  A
C167        C430   1.490       .  S
C167        C168   1.404   1_556  A
C168        H169   1.085       .  S
C171        C521   1.494       .  S
C171        C172   1.422       .  A
C171        C176   1.407       .  A
C172        C641   1.499       .  S
C172        C173   1.407       .  A
C173       H1498   1.085   1_455  S
C173        C174   1.407       .  A
C174        C410   1.493       .  S
C174        C175   1.422       .  A
C175        C381   1.496       .  S
C175        C176   1.407       .  A
C176        H177   1.085       .  S
H178       C1493   1.085       .  S
C179       C1161   1.500       .  S
C179        C180   1.428       .  A
C179        C184   1.422       .  A
C180        C621   1.483       .  S
C180        C181   1.394       .  A
C181        H186   1.090       .  S
C181        C182   1.379       .  A
C182        C370   1.402   1_554  S
C182        C183   1.370   1_554  A
C183        C350   1.530       .  S
C183        C184   1.423   1_556  A
C184        H845   1.087       .  S
H185        C844   1.086       .  S
C187        N188   1.358       .  A
C187        N192   1.360       .  A
C187        C361   1.487       .  S
N188        C189   1.357       .  A
C189        N190   1.355       .  A
C189        C223   1.460       .  S
N190        C191   1.355       .  A
C191        N192   1.359       .  A
C191        C318   1.463       .  S
C193        N194   1.364       .  A
C193        N198   1.361       .  A
C193        C450   1.477       .  S
N194        C195   1.360       .  A
C195        N196   1.354       .  A
C195        C243   1.465       .  S
N196        C197   1.353       .  A
C197        N198   1.357       .  A
C197        C296   1.462       .  S
C199        N200   1.364       .  A
C199        N204   1.356       .  A
C199        C341   1.499       .  S
N200        C201   1.366       .  A
C201        N202   1.357       .  A
C201        C303   1.467       .  S
N202        C203   1.352       .  A
C203        N204   1.352       .  A
C203        C259   1.461       .  S
C205        N206   1.358       .  A
C205        N210   1.360       .  A
C205        C421   1.475       .  S
N206        C207   1.357       .  A
C207        N208   1.357       .  A
C207        C328   1.460       .  S
N208        C209   1.356       .  A
C209        N210   1.358       .  A
C209        C273   1.464       .  S
C211        N212   1.361       .  A
C211        N216   1.359       .  A
C211        C390   1.477       .  S
N212        C213   1.360       .  A
C213        N214   1.354       .  A
C213        C238   1.460       .  S
N214        C215   1.352       .  A
C215        N216   1.356       .  A
C215        C324   1.458       .  S
C217        N218   1.356       .  A
C217        N222   1.362       .  A
C217        C470   1.484       .  S
N218        C219   1.358       .  A
C219        N220   1.359       .  A
C219        C338   1.467       .  S
N220        C221   1.360       .  A
C221        N222   1.364       .  A
C221        C263   1.475       .  S
C223        N241   1.345       .  A
C223        C260   1.459       .  S
N224        N241   1.322       .  A
N224        N246   1.321       .  A
N224       Co261   2.066       .  S
C225        N250   1.342       .  A
C225        C263   1.458       .  S
C225        H270   1.081       .  S
H226        C267   1.081       .  S
C227        N251   1.336       .  A
C227        C231   1.455       .  S
C227        H256   1.081       .  S
Co228       N246   2.096       .  S
Co228       N236   2.078       .  S
Co228       N268   2.078       .  S
Co228       N244   2.105       .  S
Co228      Cl272   2.430       .  S
N229        C267   1.345       .  A
N229        N236   1.319       .  A
N229       Co230   2.085       .  S
Co230       N233   2.084       .  S
Co230       N250   2.086       .  S
Co230       N237   2.083       .  S
Co230      Cl272   2.475       .  S
C231        N269   1.350       .  A
C231        C286   1.464       .  S
N232        N239   1.318       .  A
N232        N262   1.325       .  A
N232       Co265   2.086       .  S
N233        N251   1.322       .  A
N233        N269   1.327       .  A
N234        C263   1.353       .  A
N234        N244   1.327       .  A
H235        C260   1.081       .  S
N236        N257   1.322       .  A
N237        N255   1.321       .  A
N237        N242   1.326       .  A
C238        N242   1.349       .  A
C238        C266   1.454       .  S
N239        C254   1.342       .  A
N239       Co261   2.081       .  S
C240        N268   1.336       .  A
C240        C243   1.454       .  S
C240        H274   1.082       .  S
C243        N264   1.351       .  A
N244        N250   1.322       .  A
N245        C271   1.337       .  A
N245        N247   1.321       .  A
N245       Co261   2.071       .  S
N246        C260   1.342       .  A
N247        N275   1.326       .  A
N247       Co265   2.094       .  S
H248        C271   1.081       .  S
H249        C266   1.082       .  S
N251       Co265   2.084       .  S
N252        N264   1.328       .  A
N252        N268   1.320       .  A
N252       Co261   2.088       .  S
C253        N257   1.346       .  A
C253        C267   1.461       .  S
C253        C280   1.463       .  S
C254        C273   1.458       .  S
C254        H258   1.081       .  S
N255        C266   1.337       .  A
N255       Co265   2.078       .  S
C259        N275   1.350       .  A
C259        C271   1.454       .  S
Co261      Cl272   2.470       .  S
N262        C273   1.349       .  A
Co265      Cl272   2.429       .  S
C276        N277   1.360       .  A
C276        N281   1.361       .  A
C276        C401   1.477       .  S
N277        C278   1.357       .  A
C278        N279   1.355       .  A
C278        C288   1.464       .  S
N279        C280   1.356       .  A
C280        N281   1.359       .  A
C282        N283   1.361       .  A
C282        N287   1.363       .  A
C282        C481   1.478       .  S
N283        C284   1.358       .  A
C284        N285   1.351       .  A
C284        C308   1.464       .  S
N285        C286   1.354       .  A
C286        N287   1.360       .  A
C288        N306   1.350       .  A
C288        C325   1.457       .  S
N289        N306   1.326       .  A
N289        N311   1.319       .  A
N289      Co1646   2.085       .  S
C290        N315   1.342       .  A
C290        C328   1.459       .  S
C290        H335   1.081       .  S
H291        C332   1.081       .  S
C292        N316   1.336       .  A
C292        C296   1.453       .  S
C292        H321   1.082       .  S
Co293       N333   2.096       .  S
Co293       N309   2.080       .  S
Co293      N1631   2.079   1_455  S
Co293      N1621   2.096   1_455  S
Co293      Cl337   2.432       .  S
N294        C332   1.339       .  A
N294        N301   1.321       .  A
N294      Co1615   2.073       .  S
Co295       N315   2.083       .  S
Co295      N1614   2.073   1_455  S
Co295      N2278   2.088   1_455  S
Co295       N962   2.077       .  S
Co295      Cl337   2.471       .  S
C296        N334   1.351       .  A
N297        N304   1.321       .  A
N297        N327   1.328       .  A
N297      Co1650   2.103       .  S
N298        N316   1.319       .  A
N298        N334   1.328       .  A
N298      Co2275   2.090   1_545  S
N299        C328   1.347       .  A
N299        N309   1.323       .  A
H300        C325   1.082       .  S
N301        N322   1.325       .  A
N301      Co1613   2.096       .  S
N302        N320   1.322       .  A
N302        N307   1.325       .  A
N302       Co955   2.073   1_545  S
C303        N307   1.347       .  A
C303        C331   1.461       .  S
N304        C319   1.337       .  A
N304      Co2306   2.071   1_545  S
C305        N333   1.340       .  A
C305        C308   1.460       .  S
C305        H339   1.081       .  S
C308        N329   1.347       .  A
N309        N315   1.319       .  A
N310        C336   1.341       .  A
N310        N312   1.319       .  A
N310       Co986   2.075   1_545  S
N311        C325   1.340       .  A
N311      Co1613   2.079       .  S
N312        N340   1.323       .  A
N312       Co330   2.081       .  S
H313        C336   1.081   1_565  S
H314        C331   1.081       .  S
N316      Co1650   2.073       .  S
N317        N329   1.325       .  A
N317        N333   1.321       .  A
N317       Co326   2.074       .  S
C318        N322   1.350       .  A
C318        C332   1.454       .  S
C319        C338   1.453       .  S
C319        H323   1.081   1_545  S
N320        C331   1.340       .  A
N320       Co330   2.101       .  S
C324        N340   1.348       .  A
C324        C336   1.456       .  S
Co326      N1609   2.085   1_455  S
Co326      N2284   2.067   1_455  S
Co326       N970   2.084       .  S
Co326      Cl337   2.467       .  S
N327        C338   1.353       .  A
Co330      N1617   2.103   1_455  S
Co330      N1636   2.073   1_455  S
Co330      Cl997   2.431   1_545  S
Cl337      Co990   2.431       .  S
C341        C342   1.421       .  A
C341        C346   1.421       .  A
C342        C343   1.402       .  A
C342       Br354   1.937       .  S
C343        C344   1.407       .  A
C343       Br358   1.936       .  S
C344        C347   1.498       .  S
C344        C345   1.411       .  A
C345        C346   1.415       .  A
C345       Br353   1.933       .  S
C346       Br357   1.931       .  S
C347        C352   1.392       .  A
C347       C1008   1.437   1_545  A
C348        C349   1.489       .  A
C348       C1007   1.438       .  A
C348       Br359   1.957       .  S
C349        C350   1.515       .  A
C349       Br355   3.708       .  S
C350       C1011   1.406       .  A
C351        C352   1.378       .  A
C351       C1010   1.406   1_545  A
C351       Br360   1.940       .  S
C352       Br356   1.938       .  S
C361        C362   1.402       .  A
C361        C366   1.407       .  A
C362        C363   1.411       .  A
C362       Br374   1.939       .  S
C363        C364   1.427       .  A
C363       Br378   1.914       .  S
C364        C367   1.536       .  S
C364        C365   1.438       .  A
C365        C366   1.416       .  A
C365       Br373   1.933       .  S
C366       Br377   1.944       .  S
C367        C368   1.629       .  A
C367        C372   1.645       .  A
C368        C369   1.612       .  A
C368       Br379   1.926       .  S
C369        C370   1.625       .  A
C369       Br375   1.919       .  S
C370        C371   1.622       .  A
C371        C372   1.613       .  A
C371       Br380   1.920       .  S
C372       Br376   1.936       .  S
C381        C382   1.413       .  A
C381        C386   1.417       .  A
C382        C383   1.408       .  A
C382       Br394   1.920       .  S
C383        C384   1.407       .  A
C383       Br398   1.932       .  S
C384        C387   1.487       .  S
C384        C385   1.407       .  A
C385        C386   1.410       .  A
C385       Br393   1.930       .  S
C386       Br397   1.926       .  S
C387        C388   1.412       .  A
C387        C392   1.408       .  A
C388        C389   1.410       .  A
C388       Br399   1.929       .  S
C389        C390   1.407       .  A
C389       Br395   1.925       .  S
C390        C391   1.411       .  A
C391        C392   1.406       .  A
C391       Br400   1.932       .  S
C392       Br396   1.929       .  S
C401        C402   1.413       .  A
C401        C406   1.409       .  A
C402        C403   1.406       .  A
C402       Br414   1.934       .  S
C403        C404   1.409       .  A
C403      Br1738   1.931       .  S
C404        C407   1.487       .  S
C404        C405   1.412       .  A
C405        C406   1.410       .  A
C405       Br413   1.929       .  S
C406       Br417   1.928       .  S
C407        C408   1.407       .  A
C407        C412   1.409       .  A
C408        C409   1.407       .  A
C408       Br419   1.931       .  S
C409       C1730   1.414       .  A
C409       Br415   1.926       .  S
C410        C411   1.412   1_455  A
C410       C1729   1.414       .  A
C411       C1732   1.410       .  A
C411       Br420   1.923       .  S
C412       C1731   1.410       .  A
C412       Br416   1.930       .  S
Br418      C1723   1.931   1_455  S
C421        C422   1.413       .  A
C421        C426   1.410       .  A
C422        C423   1.403       .  A
C422       Br434   1.933       .  S
C423        C424   1.406       .  A
C423       Br438   1.931       .  S
C424        C427   1.481       .  S
C424        C425   1.411       .  A
C425        C426   1.409       .  A
C425       Br433   1.929       .  S
C426       Br437   1.929       .  S
C427        C428   1.407       .  A
C427        C432   1.405       .  A
C428        C429   1.407       .  A
C428       Br439   1.929       .  S
C429        C430   1.411       .  A
C429       Br435   1.921   1_455  S
C430        C431   1.415       .  A
C431        C432   1.405       .  A
C431       Br440   1.924       .  S
C432       Br436   1.932       .  S
C441       C1486   1.491       .  S
C441        C446   1.415       .  A
C441       C1762   1.412       .  A
C442        C443   1.409       .  A
C442       C1761   1.412       .  A
C442       Br454   1.923       .  S
C443       C1764   1.408   1_455  A
C443       Br458   1.929       .  S
C444        C447   1.484       .  S
C444        C445   1.405       .  A
C444       C1763   1.408       .  A
C445        C446   1.405       .  A
C445       Br453   1.933       .  S
C446       Br457   1.923       .  S
C447        C448   1.408       .  A
C447        C452   1.410       .  A
C448        C449   1.406       .  A
C448       Br459   1.929       .  S
C449        C450   1.412       .  A
C449       Br455   1.932       .  S
C450        C451   1.408       .  A
C451        C452   1.409       .  A
C451       Br460   1.926       .  S
C452       Br456   1.929       .  S
C461        C466   1.416       .  A
C461       C1122   1.411       .  A
C462        C463   1.409       .  A
C462       C1121   1.411   1_545  A
C462       Br474   1.925       .  S
C463        C464   1.409       .  A
C463       Br478   1.929       .  S
C464        C467   1.495       .  S
C464       C1125   1.410   1_545  A
C465        C466   1.412       .  A
C465       C1124   1.409       .  A
C465       Br473   1.928       .  S
C466       Br477   1.931       .  S
C467        C468   1.411       .  A
C467        C472   1.411   1_545  A
C468        C469   1.409       .  A
C468       Br479   1.929       .  S
C469        C470   1.410       .  A
C469       Br475   1.930       .  S
C470        C471   1.412       .  A
C471        C472   1.413   1_545  A
C471       Br480   1.929   1_545  S
C472      Br1136   1.928       .  S
Br476      C1132   1.927       .  S
C481        C482   1.411       .  A
C481        C486   1.409       .  A
C482        C483   1.410       .  A
C482       Br494   1.930       .  S
C483        C484   1.411       .  A
C483       Br498   1.930       .  S
C484        C487   1.488       .  S
C484        C485   1.410       .  A
C485        C486   1.406       .  A
C485       Br493   1.927       .  S
C486       Br497   1.931       .  S
C487        C488   1.409       .  A
C487        C492   1.410       .  A
C488        C489   1.405       .  A
C488       Br499   1.931       .  S
C489        C490   1.410       .  A
C489       Br495   1.924       .  S
C490        C491   1.414       .  A
C491        C492   1.410       .  A
C491       Br500   1.931       .  S
C492       Br496   1.930       .  S
C501        C839   1.493   1_545  S
C501        C502   1.414       .  A
C501        C506   1.410       .  A
C502        C503   1.412       .  A
C502      Br1174   1.930   1_545  S
C503        C504   1.410       .  A
C503       Br518   1.928       .  S
C504        C507   1.489       .  S
C504        C505   1.408       .  A
C505        C506   1.406       .  A
C505       Br513   1.930       .  S
C506       Br517   1.922       .  S
C507        C508   1.410       .  A
C507        C512   1.408       .  A
C508        C509   1.411       .  A
C508       Br519   1.929       .  S
C509        C510   1.412       .  A
C509       Br515   1.928       .  S
C510        C511   1.415       .  A
C511        C512   1.408       .  A
C511       Br520   1.933       .  S
C512      Br1176   1.931   1_545  S
Br514      C1162   1.929       .  S
Br516      C1172   1.932       .  S
C521        C522   1.412       .  A
C521        C526   1.414       .  A
C522        C523   1.408       .  A
C522       Br534   1.924       .  S
C523        C524   1.409       .  A
C523       Br538   1.930       .  S
C524        C527   1.484       .  S
C524        C525   1.407       .  A
C525        C526   1.406       .  A
C525       Br533   1.932       .  S
C526       Br537   1.926       .  S
C527        C528   1.410       .  A
C527        C532   1.408       .  A
C528        C529   1.405       .  A
C528       Br539   1.923       .  S
C529        C530   1.409       .  A
C529       Br535   1.933       .  S
C530        C531   1.414       .  A
C531        C532   1.408       .  A
C531       Br540   1.931       .  S
C532       Br536   1.931       .  S
C541        C542   1.412       .  A
C541        C546   1.409       .  A
C542        C543   1.407       .  A
C542       Br554   1.932       .  S
C543        C544   1.408       .  A
C543       Br558   1.930       .  S
C544        C547   1.491       .  S
C544        C545   1.413       .  A
C545        C546   1.412       .  A
C545       Br553   1.928       .  S
C546       Br557   1.928       .  S
C547        C548   1.408       .  A
C547       C1212   1.410   1_545  A
C548        C549   1.411       .  A
C548       Br559   1.929       .  S
C549       C1210   1.416       .  A
C549       Br555   1.933       .  S
C550        C551   1.412       .  A
C550       C1209   1.416       .  A
C551        C552   1.409       .  A
C551       Br560   1.924       .  S
C552       C1207   1.409       .  A
C552       Br556   1.931       .  S
C561        C562   1.409       .  A
C561        C566   1.414       .  A
C562        C563   1.402       .  A
C562       Br574   1.933       .  S
C563        C564   1.407       .  A
C563       Br578   1.926       .  S
C564        C567   1.478       .  S
C564        C565   1.408       .  A
C565        C566   1.406       .  A
C565       Br573   1.931       .  S
C566       Br577   1.933       .  S
C567        C568   1.405       .  A
C567        C572   1.406       .  A
C568        C569   1.403       .  A
C568       Br579   1.934       .  S
C569        C570   1.415       .  A
C569       Br575   1.925       .  S
C570        C571   1.413       .  A
C571        C572   1.408       .  A
C571      Br1900   1.923   1_455  S
C572       Br576   1.931       .  S
Br580      C1891   1.923       .  S
C581       C1484   1.494       .  S
C581        C582   1.416       .  A
C581       C1906   1.414       .  A
C582        C583   1.403       .  A
C582       Br594   1.923       .  S
C583        C584   1.404       .  A
C583       Br598   1.933       .  S
C584        C587   1.480       .  S
C584        C585   1.407       .  A
C585       C1906   1.409       .  A
C585      Br1913   1.931       .  S
C586       C1901   1.414       .  A
C586       C1905   1.409       .  A
C586       Br597   1.923       .  S
C587        C588   1.408       .  A
C587        C592   1.407       .  A
C588        C589   1.404       .  A
C588      Br1919   1.928       .  S
C589        C590   1.412       .  A
C589       Br595   1.933       .  S
C590        C591   1.415       .  A
C591        C592   1.407       .  A
C591       Br600   1.933       .  S
C592       Br596   1.931       .  S
Br593      C1905   1.931       .  S
Br599      C1908   1.928       .  S
C601        C602   1.413       .  A
C601        C606   1.419       .  A
C602        C603   1.409       .  A
C602       Br614   1.922       .  S
C603        C604   1.408       .  A
C603       Br618   1.931       .  S
C604        C607   1.487       .  S
C604        C605   1.406       .  A
C605        C606   1.408       .  A
C605       Br613   1.930       .  S
C606       Br617   1.934       .  S
C607        C608   1.411       .  A
C607        C612   1.407       .  A
C608        C609   1.410       .  A
C608       Br619   1.929       .  S
C609        C610   1.410       .  A
C609       Br615   1.928       .  S
C610        C611   1.416       .  A
C611        C612   1.407       .  A
C611       Br620   1.933       .  S
C612       Br616   1.931       .  S
C621        C622   1.411       .  A
C621        C626   1.417       .  A
C622        C623   1.408       .  A
C622       Br634   1.926       .  S
C623        C624   1.408       .  A
C623       Br638   1.929       .  S
C624        C627   1.481       .  S
C624        C625   1.405       .  A
C625        C626   1.403       .  A
C625       Br633   1.932       .  S
C626       Br637   1.934       .  S
C627        C628   1.405       .  A
C627        C632   1.412       .  A
C628        C629   1.404       .  A
C628       Br639   1.932       .  S
C629        C630   1.413       .  A
C629       Br635   1.932       .  S
C630        C631   1.408       .  A
C631        C632   1.410       .  A
C631       Br640   1.929       .  S
C632       Br636   1.929       .  S
C641        C646   1.414   1_455  A
C641       C1962   1.416       .  A
C642        C643   1.409       .  A
C642       C1961   1.416       .  A
C642       Br654   1.925       .  S
C643        C644   1.407       .  A
C643       Br658   1.931       .  S
C644        C647   1.489       .  S
C644        C645   1.409       .  A
C645       C1966   1.410       .  A
C645      Br1973   1.932       .  S
C646       C1965   1.410       .  A
C646       Br657   1.925       .  S
C647        C648   1.410       .  A
C647        C652   1.410       .  A
C648        C649   1.408       .  A
C648       Br659   1.931       .  S
C649        C650   1.413       .  A
C649       Br655   1.931       .  S
C650        C651   1.411       .  A
C651        C652   1.408       .  A
C651       Br660   1.932       .  S
C652      Br1976   1.926       .  S
Br653      C1965   1.932       .  S
Br656      C1972   1.926   1_455  S
C661        N662   1.358       .  A
C661        N666   1.357       .  A
C661       C1310   1.476       .  S
N662        C663   1.358       .  A
C663        N664   1.356       .  A
C663        C792   1.463       .  S
N664        C665   1.357       .  A
C665        N666   1.356       .  A
C665        C685   1.459       .  S
C667        N668   1.358       .  A
C667        N672   1.359       .  A
C667       C1290   1.470       .  S
N668        C669   1.355       .  A
C669        N670   1.355       .  A
C669        C715   1.458       .  S
N670        C671   1.356       .  A
C671        N672   1.358       .  A
C671        C762   1.460       .  S
C673        N674   1.359       .  A
C673        N678   1.361       .  A
C673       C1270   1.482       .  S
N674        C675   1.357       .  A
C675        N676   1.358       .  A
C675        C802   1.467       .  S
N676        C677   1.359       .  A
C677        N678   1.359       .  A
C677        C735   1.468       .  S
C679        N680   1.358       .  A
C679        N684   1.355       .  A
C679       C1250   1.478       .  S
N680        C681   1.358       .  A
C681        N682   1.360       .  A
C681        C812   1.463       .  S
N682        C683   1.357       .  A
C683        N684   1.355       .  A
C683        C725   1.463       .  S
C685       N2023   1.348       .  A
C685        C722   1.454       .  S
N686        N703   1.324       .  A
N686       N2028   1.321       .  A
N686       Co723   2.079   1_655  S
C687        N712   1.337       .  A
C687       C2045   1.454       .  S
C687        H732   1.081   1_655  S
H688        C729   1.081       .  S
C689        N713   1.337       .  A
C689        C693   1.454       .  S
C689        H718   1.081       .  S
Co690       N708   2.081       .  S
Co690       N698   2.080       .  S
Co690     Cl2054   2.428       .  S
N691        C729   1.342       .  A
N691       N2018   1.318       .  A
N691       Co692   2.078   1_655  S
Co692       N695   2.072       .  S
Co692      Cl734   2.470       .  S
C693        N731   1.347       .  A
C693        C742   1.456       .  S
N694        N701   1.319       .  A
N694        N724   1.323       .  A
N694       Co727   2.082       .  S
N695        N713   1.320       .  A
N695        N731   1.323       .  A
N696        C725   1.350       .  A
N696        N706   1.327       .  A
H697        C722   1.081       .  S
N698       N2011   1.318       .  A
N698        N719   1.323       .  A
N699        N717   1.319       .  A
N699        N704   1.326       .  A
C700        N704   1.349       .  A
C700        C728   1.458       .  S
C700        C760   1.465       .  S
N701        C716   1.346       .  A
N701       Co723   2.091       .  S
C702        N730   1.335       .  A
C702        C705   1.453       .  S
C702        H736   1.082       .  S
N703       C2005   1.348       .  A
C705       N2046   1.351       .  A
C705        C748   1.463       .  S
N706       N2032   1.320       .  A
N707        C733   1.340       .  A
N707        N709   1.321       .  A
N708        C722   1.339       .  A
N708       N2006   1.321       .  A
N709        N737   1.322       .  A
H710        C733   1.081       .  S
H711        C728   1.081       .  S
N712       N2026   1.320       .  A
N713       Co727   2.080       .  S
N714        N726   1.328       .  A
N714       N2050   1.320       .  A
C715        N719   1.347       .  A
C715       C2049   1.458       .  S
C716        C735   1.463       .  S
C716        H720   1.081       .  S
N717        C728   1.340       .  A
C721        N737   1.346       .  A
C721        C733   1.457       .  S
C721        C754   1.458       .  S
Co723      Cl734   2.474       .  S
N724        C735   1.347       .  A
C725       C2007   1.454       .  S
N726       C2025   1.351       .  A
Co727      Cl734   2.426       .  S
C729       C2035   1.458       .  S
N730       N2034   1.320       .  A
Cl734     Co2010   2.428   1_455  S
C738        N739   1.361       .  A
C738        N743   1.357       .  A
C738       C1221   1.471       .  S
N739        C740   1.357       .  A
C740        N741   1.354       .  A
C740        C782   1.461       .  S
N741        C742   1.352       .  A
C742        N743   1.354       .  A
C744        N745   1.361       .  A
C744        N749   1.363       .  A
C744       C1201   1.479       .  S
N745        C746   1.357       .  A
C746        N747   1.352       .  A
C746        C770   1.462       .  S
N747        C748   1.354       .  A
C748        N749   1.361       .  A
C750        N751   1.352       .  A
C750        N755   1.358       .  A
C750       C1190   1.469       .  S
N751        C752   1.353       .  A
C752        N753   1.354       .  A
C752        C777   1.452       .  S
N753        C754   1.357       .  A
C754        N755   1.358       .  A
C756        N757   1.364       .  A
C756        N761   1.362       .  A
C756       C1170   1.491       .  S
N757        C758   1.361       .  A
C758        N759   1.355       .  A
C758        C798   1.468       .  S
N759        C760   1.354       .  A
C760        N761   1.360       .  A
C762        N780   1.350       .  A
C762        C799   1.453       .  S
N763        N780   1.326       .  A
N763        N785   1.321       .  A
N763       Co800   2.090       .  S
C764        N789   1.343       .  A
C764        C802   1.461       .  S
C764        H809   1.081       .  S
H765        C806   1.081       .  S
C766        N790   1.338       .  A
C766        C770   1.457       .  S
C766        H795   1.082       .  S
Co767       N785   2.075       .  S
Co767       N775   2.094       .  S
Co767       N807   2.078       .  S
Co767       N783   2.087       .  S
Co767      Cl811   2.430       .  S
N768        C806   1.337       .  A
N768        N775   1.319       .  A
N768       Co769   2.066       .  S
Co769       N772   2.080       .  S
Co769       N789   2.085       .  S
Co769       N776   2.062       .  S
Co769      Cl811   2.467       .  S
C770        N808   1.349       .  A
N771        N778   1.321       .  A
N771        N801   1.324       .  A
N771       Co804   2.083       .  S
N772        N790   1.320       .  A
N772        N808   1.326       .  A
N773        C802   1.350       .  A
N773        N783   1.325       .  A
H774        C799   1.082       .  S
N775        N796   1.326       .  A
N776        N794   1.320       .  A
N776        N781   1.319       .  A
C777        N781   1.344       .  A
C777        C805   1.457       .  S
N778        C793   1.341       .  A
N778       Co800   2.084       .  S
C779        N807   1.335       .  A
C779        C782   1.452       .  S
C779        H813   1.082       .  S
C782        N803   1.351       .  A
N783        N789   1.318       .  A
N784        C810   1.346       .  A
N784        N786   1.321       .  A
N784       Co800   2.093       .  S
N785        C799   1.336       .  A
N786        N814   1.323       .  A
N786       Co804   2.085       .  S
H787        C810   1.081       .  S
H788        C805   1.081       .  S
N790       Co804   2.084       .  S
N791        N803   1.327       .  A
N791        N807   1.322       .  A
N791       Co800   2.088       .  S
C792        N796   1.351       .  A
C792        C806   1.452       .  S
C793        C812   1.459       .  S
C793        H797   1.081       .  S
N794        C805   1.341       .  A
N794       Co804   2.082       .  S
C798        N814   1.347       .  A
C798        C810   1.462       .  S
Co800      Cl811   2.474       .  S
N801        C812   1.347       .  A
Co804      Cl811   2.430       .  S
C815       C1261   1.500       .  S
C815        C816   1.425       .  A
C815        C820   1.406       .  A
C816       C1210   1.495   1_565  S
C816        C817   1.410       .  A
C817        C818   1.407       .  A
C818       C1121   1.500       .  S
C818        C819   1.421       .  A
C819       C1150   1.491       .  S
C819        C820   1.402       .  A
C820        H821   1.085       .  S
C823       C1230   1.492       .  S
C823        C824   1.423       .  A
C823        C828   1.405       .  A
C824       C2561   1.496       .  S
C824       C2145   1.406       .  A
C825        H830   1.085       .  S
C825       C2144   1.406       .  A
C825       C2146   1.404   1_554  A
C826       C2421   1.492       .  S
C826       C2145   1.404   1_556  A
C826        C827   1.420       .  A
C827       C1090   1.491       .  S
C827        C828   1.404   1_556  A
C828        H829   1.085       .  S
C831       C1181   1.492       .  S
C831        C832   1.422       .  A
C831        C836   1.407       .  A
C832       C1301   1.500       .  S
C832        C833   1.406       .  A
C833       H2158   1.086   1_455  S
C833        C834   1.408       .  A
C834       C1070   1.491       .  S
C834        C835   1.422       .  A
C835       C1041   1.498       .  S
C835        C836   1.406       .  A
C836        H837   1.085       .  S
H838       C2153   1.086       .  S
C839        C840   1.427       .  A
C839        C844   1.417   1_565  A
C840       C1281   1.484       .  S
C840        C841   1.395       .  A
C841        H846   1.090       .  S
C841        C842   1.381       .  A
C842       C1030   1.401   1_554  S
C842        C843   1.370   1_554  A
C843       C1010   1.527       .  S
C843        C844   1.418   1_566  A
C847        N848   1.360       .  A
C847        N852   1.360       .  A
C847       C1021   1.489       .  S
N848        C849   1.359       .  A
C849        N850   1.355       .  A
C849        C883   1.464       .  S
N850        C851   1.356       .  A
C851        N852   1.360       .  A
C851        C978   1.464       .  S
C853        N854   1.364       .  A
C853        N858   1.360       .  A
C853       C1110   1.477       .  S
N854        C855   1.360       .  A
C855        N856   1.355       .  A
C855        C903   1.467       .  S
N856        C857   1.354       .  A
C857        N858   1.356       .  A
C857        C956   1.462       .  S
C859        N860   1.364       .  A
C859        N864   1.355       .  A
C859       C1001   1.497       .  S
N860        C861   1.366       .  A
C861        N862   1.358       .  A
C861        C963   1.467       .  S
N862        C863   1.352       .  A
C863        N864   1.351       .  A
C863        C919   1.461       .  S
C865        N866   1.358       .  A
C865        N870   1.360       .  A
C865       C1081   1.474       .  S
N866        C867   1.357       .  A
C867        N868   1.358       .  A
C867        C988   1.461       .  S
N868        C869   1.357       .  A
C869        N870   1.358       .  A
C869        C933   1.466       .  S
C871        N872   1.362       .  A
C871        N876   1.361       .  A
C871       C1050   1.479       .  S
N872        C873   1.360       .  A
C873        N874   1.355       .  A
C873        C898   1.463       .  S
N874        C875   1.354       .  A
C875        N876   1.357       .  A
C875        C984   1.462       .  S
C877        N878   1.354       .  A
C877        N882   1.362       .  A
C877       C1130   1.481       .  S
N878        C879   1.356       .  A
C879        N880   1.358       .  A
C879        C998   1.463       .  S
N880        C881   1.360       .  A
C881        N882   1.364       .  A
C881        C923   1.474       .  S
C883        N901   1.345       .  A
C883        C920   1.462       .  S
N884        N901   1.323       .  A
N884        N906   1.321       .  A
N884       Co921   2.067       .  S
C885        N910   1.342       .  A
C885        C923   1.458       .  S
C885        H930   1.081       .  S
H886        C927   1.081       .  S
C887        N911   1.335       .  A
C887        C891   1.454       .  S
C887        H916   1.081       .  S
Co888       N906   2.102       .  S
Co888       N896   2.078       .  S
Co888       N928   2.077       .  S
Co888       N904   2.107       .  S
Co888      Cl932   2.430       .  S
N889        C927   1.345       .  A
N889        N896   1.320       .  A
N889       Co890   2.087       .  S
Co890       N893   2.088       .  S
Co890       N910   2.086       .  S
Co890       N897   2.088       .  S
Co890      Cl932   2.477       .  S
C891        N929   1.351       .  A
C891        C946   1.466       .  S
N892        N899   1.318       .  A
N892        N922   1.325       .  A
N892       Co925   2.086       .  S
N893        N911   1.322       .  A
N893        N929   1.328       .  A
N894        C923   1.353       .  A
N894        N904   1.327       .  A
H895        C920   1.081       .  S
N896        N917   1.322       .  A
N897        N915   1.320       .  A
N897        N902   1.327       .  A
C898        N902   1.350       .  A
C898        C926   1.454       .  S
N899        C914   1.343       .  A
N899       Co921   2.084       .  S
C900        N928   1.336       .  A
C900        C903   1.453       .  S
C900        H934   1.082       .  S
C903        N924   1.352       .  A
N904        N910   1.322       .  A
N905        C931   1.336       .  A
N905        N907   1.321       .  A
N905       Co921   2.070       .  S
N906        C920   1.343       .  A
N907        N935   1.326       .  A
N907       Co925   2.093       .  S
H908        C931   1.081       .  S
H909        C926   1.082       .  S
N911       Co925   2.084       .  S
N912        N924   1.329       .  A
N912        N928   1.320       .  A
N912       Co921   2.092       .  S
C913        N917   1.346       .  A
C913        C927   1.460       .  S
C913        C940   1.463       .  S
C914        C933   1.459       .  S
C914        H918   1.081       .  S
N915        C926   1.337       .  A
N915       Co925   2.078       .  S
C919        N935   1.350       .  A
C919        C931   1.454       .  S
Co921      Cl932   2.472       .  S
N922        C933   1.349       .  A
Co925      Cl932   2.430       .  S
C936        N937   1.359       .  A
C936        N941   1.361       .  A
C936       C1061   1.477       .  S
N937        C938   1.357       .  A
C938        N939   1.354       .  A
C938        C948   1.461       .  S
N939        C940   1.355       .  A
C940        N941   1.359       .  A
C942        N943   1.362       .  A
C942        N947   1.363       .  A
C942       C1141   1.480       .  S
N943        C944   1.358       .  A
C944        N945   1.352       .  A
C944        C968   1.468       .  S
N945        C946   1.355       .  A
C946        N947   1.360       .  A
C948        N966   1.349       .  A
C948        C985   1.456       .  S
N949        N966   1.325       .  A
N949        N971   1.318       .  A
N949      Co2306   2.080       .  S
C950        N975   1.343       .  A
C950        C988   1.460       .  S
C950        H995   1.081       .  S
H951        C992   1.081       .  S
C952        N976   1.336       .  A
C952        C956   1.453       .  S
C952        H981   1.082       .  S
Co953      N2291   2.077   1_455  S
Co953      N2281   2.100   1_455  S
Co953       N993   2.100       .  S
Co953       N969   2.076       .  S
Co953      Cl997   2.431       .  S
N954        C992   1.339       .  A
N954        N961   1.321       .  A
N954      Co2275   2.071       .  S
Co955      N2274   2.071   1_455  S
Co955      N1618   2.090   1_465  S
Co955       N975   2.086       .  S
Co955      Cl997   2.471       .  S
C956        N994   1.351       .  A
N957        N964   1.321       .  A
N957        N987   1.327       .  A
N957      Co2310   2.098       .  S
N958        N976   1.319       .  A
N958        N994   1.327       .  A
N958      Co1615   2.088       .  S
N959        C988   1.346       .  A
N959        N969   1.322       .  A
H960        C985   1.082       .  S
N961        N982   1.325       .  A
N961      Co2273   2.100       .  S
N962        N980   1.322       .  A
N962        N967   1.326       .  A
C963        N967   1.348       .  A
C963        C991   1.460       .  S
N964        C979   1.335       .  A
N964      Co1646   2.067       .  S
C965        N993   1.341       .  A
C965        C968   1.461       .  S
C965        H999   1.081       .  S
C968        N989   1.347       .  A
N969        N975   1.319       .  A
N970        C996   1.343       .  A
N970        N972   1.319       .  A
N971        C985   1.339       .  A
N971      Co2273   2.077       .  S
N972       N1000   1.323       .  A
N972       Co990   2.082       .  S
H973        C996   1.081       .  S
H974        C991   1.081       .  S
N976      Co2310   2.075       .  S
N977        N989   1.326       .  A
N977        N993   1.321       .  A
N977       Co986   2.076       .  S
C978        N982   1.351       .  A
C978        C992   1.453       .  S
C979        C998   1.452       .  S
C979        H983   1.081       .  S
N980        C991   1.340       .  A
N980       Co990   2.097       .  S
C984       N1000   1.347       .  A
C984        C996   1.459       .  S
Co986      N2269   2.080   1_455  S
Co986      N1624   2.071   1_465  S
Co986      Cl997   2.467       .  S
N987        C998   1.352       .  A
Co990      N2277   2.098   1_455  S
Co990      N2296   2.075   1_455  S
C1001      C1002   1.421       .  A
C1001      C1006   1.420       .  A
C1002      C1003   1.403       .  A
C1002     Br1014   1.937       .  S
C1003      C1004   1.408       .  A
C1003     Br1018   1.936       .  S
C1004      C1007   1.499       .  S
C1004      C1005   1.412       .  A
C1005      C1006   1.414       .  A
C1005     Br1013   1.933       .  S
C1006     Br1017   1.931       .  S
C1007      C1012   1.393       .  A
C1008      C1009   1.489       .  A
C1008     Br1019   1.955       .  S
C1009      C1010   1.513       .  A
C1009     Br1015   3.708       .  S
C1011      C1012   1.379       .  A
C1011     Br1020   1.939       .  S
C1012     Br1016   1.938       .  S
C1021      C1022   1.403       .  A
C1021      C1026   1.405       .  A
C1022      C1023   1.413       .  A
C1022     Br1034   1.939       .  S
C1023      C1024   1.428       .  A
C1023     Br1038   1.915       .  S
C1024      C1027   1.537       .  S
C1024      C1025   1.439       .  A
C1025      C1026   1.416       .  A
C1025     Br1033   1.933       .  S
C1026     Br1037   1.943       .  S
C1027      C1028   1.631       .  A
C1027      C1032   1.646       .  A
C1028      C1029   1.612       .  A
C1028     Br1039   1.925       .  S
C1029      C1030   1.625       .  A
C1029     Br1035   1.919       .  S
C1030      C1031   1.620       .  A
C1031      C1032   1.612       .  A
C1031     Br1040   1.921       .  S
C1032     Br1036   1.937       .  S
C1041      C1042   1.413       .  A
C1041      C1046   1.417       .  A
C1042      C1043   1.410       .  A
C1042     Br1054   1.921       .  S
C1043      C1044   1.408       .  A
C1043     Br1058   1.931       .  S
C1044      C1047   1.490       .  S
C1044      C1045   1.407       .  A
C1045      C1046   1.411       .  A
C1045     Br1053   1.930       .  S
C1046     Br1057   1.925       .  S
C1047      C1048   1.412       .  A
C1047      C1052   1.408       .  A
C1048      C1049   1.411       .  A
C1048     Br1059   1.928       .  S
C1049      C1050   1.408       .  A
C1049     Br1055   1.926       .  S
C1050      C1051   1.411       .  A
C1051      C1052   1.407       .  A
C1051     Br1060   1.931       .  S
C1052     Br1056   1.929       .  S
C1061      C1062   1.413       .  A
C1061      C1066   1.409       .  A
C1062      C1063   1.406       .  A
C1062     Br1074   1.933       .  S
C1063      C1064   1.408       .  A
C1063     Br2398   1.931       .  S
C1064      C1067   1.485       .  S
C1064      C1065   1.411       .  A
C1065      C1066   1.410       .  A
C1065     Br1073   1.929       .  S
C1066     Br1077   1.928       .  S
C1067      C1068   1.407       .  A
C1067      C1072   1.408       .  A
C1068      C1069   1.407       .  A
C1068     Br1079   1.931       .  S
C1069      C2390   1.415       .  A
C1069     Br1075   1.926       .  S
C1070      C2389   1.415       .  A
C1070      C1071   1.411   1_455  A
C1071      C2392   1.408       .  A
C1071     Br1080   1.922       .  S
C1072      C2391   1.408       .  A
C1072     Br1076   1.930       .  S
Br1078     C2383   1.931   1_455  S
C1081      C1082   1.412       .  A
C1081      C1086   1.409       .  A
C1082      C1083   1.404       .  A
C1082     Br1094   1.933       .  S
C1083      C1084   1.407       .  A
C1083     Br1098   1.930       .  S
C1084      C1087   1.482       .  S
C1084      C1085   1.411       .  A
C1085      C1086   1.409       .  A
C1085     Br1093   1.929       .  S
C1086     Br1097   1.928       .  S
C1087      C1088   1.408       .  A
C1087      C1092   1.405       .  A
C1088      C1089   1.408       .  A
C1088     Br1099   1.930       .  S
C1089      C1090   1.412       .  A
C1089     Br1095   1.921   1_455  S
C1090      C1091   1.415       .  A
C1091      C1092   1.406       .  A
C1091     Br1100   1.924       .  S
C1092     Br1096   1.932       .  S
C1101      C2146   1.492       .  S
C1101      C2422   1.411       .  A
C1101      C1106   1.416       .  A
C1102      C2421   1.411       .  A
C1102      C1103   1.409       .  A
C1102     Br1114   1.923       .  S
C1103      C2424   1.408   1_455  A
C1103     Br1118   1.928       .  S
C1104      C1107   1.484       .  S
C1104      C2423   1.408       .  A
C1104      C1105   1.406       .  A
C1105      C1106   1.406       .  A
C1105     Br1113   1.933       .  S
C1106     Br1117   1.923       .  S
C1107      C1108   1.408       .  A
C1107      C1112   1.410       .  A
C1108      C1109   1.406       .  A
C1108     Br1119   1.929       .  S
C1109      C1110   1.412       .  A
C1109     Br1115   1.932       .  S
C1110      C1111   1.408       .  A
C1111      C1112   1.409       .  A
C1111     Br1120   1.925       .  S
C1112     Br1116   1.930       .  S
C1121      C1126   1.417       .  A
C1122      C1123   1.408       .  A
C1122     Br1134   1.925       .  S
C1123      C1124   1.409       .  A
C1123     Br1138   1.929       .  S
C1124      C1127   1.492       .  S
C1125      C1126   1.414       .  A
C1125     Br1133   1.928       .  S
C1126     Br1137   1.931       .  S
C1127      C1128   1.410       .  A
C1127      C1132   1.410       .  A
C1128      C1129   1.408       .  A
C1128     Br1139   1.929       .  S
C1129      C1130   1.409       .  A
C1129     Br1135   1.930       .  S
C1130      C1131   1.412       .  A
C1131      C1132   1.412       .  A
C1131     Br1140   1.929       .  S
C1141      C1142   1.412       .  A
C1141      C1146   1.409       .  A
C1142      C1143   1.410       .  A
C1142     Br1154   1.930       .  S
C1143      C1144   1.411       .  A
C1143     Br1158   1.931       .  S
C1144      C1147   1.489       .  S
C1144      C1145   1.410       .  A
C1145      C1146   1.407       .  A
C1145     Br1153   1.928       .  S
C1146     Br1157   1.930       .  S
C1147      C1148   1.409       .  A
C1147      C1152   1.411       .  A
C1148      C1149   1.404       .  A
C1148     Br1159   1.931       .  S
C1149      C1150   1.409       .  A
C1149     Br1155   1.924       .  S
C1150      C1151   1.414       .  A
C1151      C1152   1.411       .  A
C1151     Br1160   1.931       .  S
C1152     Br1156   1.929       .  S
C1161      C1162   1.415       .  A
C1161      C1166   1.409       .  A
C1162      C1163   1.415       .  A
C1163      C1164   1.412       .  A
C1163     Br1178   1.929       .  S
C1164      C1167   1.497       .  S
C1164      C1165   1.410       .  A
C1165      C1166   1.408       .  A
C1165     Br1173   1.929       .  S
C1166     Br1177   1.921       .  S
C1167      C1168   1.412       .  A
C1167      C1172   1.411       .  A
C1168      C1169   1.412       .  A
C1168     Br1179   1.929       .  S
C1169      C1170   1.412       .  A
C1169     Br1175   1.930       .  S
C1170      C1171   1.417       .  A
C1171      C1172   1.411       .  A
C1171     Br1180   1.933       .  S
C1181      C1182   1.411       .  A
C1181      C1186   1.415       .  A
C1182      C1183   1.406       .  A
C1182     Br1194   1.923       .  S
C1183      C1184   1.407       .  A
C1183     Br1198   1.930       .  S
C1184      C1187   1.479       .  S
C1184      C1185   1.406       .  A
C1185      C1186   1.405       .  A
C1185     Br1193   1.933       .  S
C1186     Br1197   1.925       .  S
C1187      C1188   1.409       .  A
C1187      C1192   1.407       .  A
C1188      C1189   1.403       .  A
C1188     Br1199   1.923       .  S
C1189      C1190   1.408       .  A
C1189     Br1195   1.933       .  S
C1190      C1191   1.412       .  A
C1191      C1192   1.405       .  A
C1191     Br1200   1.932       .  S
C1192     Br1196   1.931       .  S
C1201      C1202   1.412       .  A
C1201      C1206   1.408       .  A
C1202      C1203   1.407       .  A
C1202     Br1214   1.932       .  S
C1203      C1204   1.408       .  A
C1203     Br1218   1.930       .  S
C1204      C1207   1.491       .  S
C1204      C1205   1.413       .  A
C1205      C1206   1.412       .  A
C1205     Br1213   1.928       .  S
C1206     Br1217   1.928       .  S
C1207      C1208   1.408       .  A
C1208      C1209   1.411       .  A
C1208     Br1219   1.929       .  S
C1209     Br1215   1.932       .  S
C1210      C1211   1.411   1_545  A
C1211      C1212   1.409       .  A
C1211     Br1220   1.924       .  S
C1212     Br1216   1.930       .  S
C1221      C1222   1.409       .  A
C1221      C1226   1.413       .  A
C1222      C1223   1.402       .  A
C1222     Br1234   1.933       .  S
C1223      C1224   1.407       .  A
C1223     Br1238   1.926       .  S
C1224      C1227   1.479       .  S
C1224      C1225   1.409       .  A
C1225      C1226   1.407       .  A
C1225     Br1233   1.930       .  S
C1226     Br1237   1.932       .  S
C1227      C1228   1.405       .  A
C1227      C1232   1.407       .  A
C1228      C1229   1.404       .  A
C1228     Br1239   1.934       .  S
C1229      C1230   1.416       .  A
C1229     Br1235   1.925       .  S
C1230      C1231   1.413       .  A
C1231      C1232   1.408       .  A
C1231     Br2560   1.924   1_455  S
C1232     Br1236   1.931       .  S
Br1240     C2551   1.924       .  S
C1241      C2144   1.496       .  S
C1241      C1242   1.416       .  A
C1241      C2566   1.415       .  A
C1242      C1243   1.403       .  A
C1242     Br1254   1.923       .  S
C1243      C1244   1.404       .  A
C1243     Br1258   1.934       .  S
C1244      C1247   1.480       .  S
C1244      C1245   1.407       .  A
C1245      C2566   1.409       .  A
C1245     Br2573   1.932       .  S
C1246      C2561   1.415       .  A
C1246      C2565   1.409       .  A
C1246     Br1257   1.922       .  S
C1247      C1248   1.408       .  A
C1247      C1252   1.407       .  A
C1248      C1249   1.405       .  A
C1248     Br2579   1.930       .  S
C1249      C1250   1.413       .  A
C1249     Br1255   1.933       .  S
C1250      C1251   1.416       .  A
C1251      C1252   1.407       .  A
C1251     Br1260   1.933       .  S
C1252     Br1256   1.931       .  S
Br1253     C2565   1.932       .  S
Br1259     C2568   1.930       .  S
C1261      C1262   1.414       .  A
C1261      C1266   1.420       .  A
C1262      C1263   1.411       .  A
C1262     Br1274   1.922   1_565  S
C1263      C1264   1.408       .  A
C1263     Br1278   1.931       .  S
C1264      C1267   1.488       .  S
C1264      C1265   1.406       .  A
C1265      C1266   1.409       .  A
C1265     Br1273   1.931       .  S
C1266     Br1277   1.933       .  S
C1267      C1268   1.410       .  A
C1267      C1272   1.408       .  A
C1268      C1269   1.410       .  A
C1268     Br1279   1.929       .  S
C1269      C1270   1.410       .  A
C1269     Br1275   1.928       .  S
C1270      C1271   1.416       .  A
C1271      C1272   1.408       .  A
C1271     Br1280   1.934       .  S
C1272     Br1276   1.931       .  S
C1281      C1282   1.413       .  A
C1281      C1286   1.417       .  A
C1282      C1283   1.408       .  A
C1282     Br1294   1.925       .  S
C1283      C1284   1.407       .  A
C1283     Br1298   1.931       .  S
C1284      C1287   1.478       .  S
C1284      C1285   1.404       .  A
C1285      C1286   1.402       .  A
C1285     Br1293   1.932       .  S
C1286     Br1297   1.936       .  S
C1287      C1288   1.405       .  A
C1287      C1292   1.411       .  A
C1288      C1289   1.404       .  A
C1288     Br1299   1.931       .  S
C1289      C1290   1.413       .  A
C1289     Br1295   1.932       .  S
C1290      C1291   1.406       .  A
C1291      C1292   1.407       .  A
C1291     Br1300   1.929       .  S
C1292     Br1296   1.930       .  S
C1301      C2622   1.418       .  A
C1301      C1306   1.415   1_455  A
C1302      C2621   1.418       .  A
C1302      C1303   1.409       .  A
C1302     Br1314   1.924       .  S
C1303      C1304   1.406       .  A
C1303     Br1318   1.932       .  S
C1304      C1307   1.486       .  S
C1304      C1305   1.407       .  A
C1305      C2626   1.410       .  A
C1305     Br2633   1.932       .  S
C1306      C2625   1.410       .  A
C1306     Br1317   1.924       .  S
C1307      C1308   1.409       .  A
C1307      C1312   1.409       .  A
C1308      C1309   1.407       .  A
C1308     Br1319   1.929       .  S
C1309      C1310   1.412       .  A
C1309     Br1315   1.932       .  S
C1310      C1311   1.410       .  A
C1311      C1312   1.407       .  A
C1311     Br1320   1.932       .  S
C1312     Br2636   1.926       .  S
Br1313     C2625   1.932       .  S
Br1316     C2632   1.926   1_455  S
C1321      N1322   1.358       .  A
C1321      N1326   1.359       .  A
C1321      C1970   1.480       .  S
N1322      C1323   1.359       .  A
C1323      N1324   1.354       .  A
C1323      C1452   1.462       .  S
N1324      C1325   1.356       .  A
C1325      N1326   1.358       .  A
C1325      C1345   1.461       .  S
C1327      N1328   1.359       .  A
C1327      N1332   1.361       .  A
C1327      C1950   1.474       .  S
N1328      C1329   1.356       .  A
C1329      N1330   1.353       .  A
C1329      C1375   1.459       .  S
N1330      C1331   1.354       .  A
C1331      N1332   1.359       .  A
C1331      C1422   1.460       .  S
C1333      N1334   1.359       .  A
C1333      N1338   1.361       .  A
C1333      C1930   1.482       .  S
N1334      C1335   1.357       .  A
C1335      N1336   1.357       .  A
C1335      C1462   1.467       .  S
N1336      C1337   1.359       .  A
C1337      N1338   1.360       .  A
C1337      C1395   1.467       .  S
C1339      N1340   1.358       .  A
C1339      N1344   1.355       .  A
C1339      C1910   1.477       .  S
N1340      C1341   1.358       .  A
C1341      N1342   1.360       .  A
C1341      C1472   1.464       .  S
N1342      C1343   1.358       .  A
C1343      N1344   1.355       .  A
C1343      C1385   1.463       .  S
C1345      C1382   1.456       .  S
N1346      N1363   1.324       .  A
N1346     Co1383   2.078       .  S
C1347      N1372   1.337       .  A
C1347      H1392   1.081       .  S
H1348      C1389   1.081       .  S
C1349      N1373   1.336       .  A
C1349      C1353   1.452       .  S
C1349      H1378   1.081       .  S
Co1350     N1368   2.087       .  S
Co1350     N1358   2.083       .  S
Co1350     N2050   2.076       .  S
Co1350     N2026   2.094       .  S
N1351      C1389   1.342       .  A
N1351     Co1352   2.076       .  S
Co1352     N1355   2.072       .  S
Co1352     N2032   2.072       .  S
Co1352     N2019   2.079       .  S
Co1352    Cl1394   2.468       .  S
C1353      N1391   1.347       .  A
C1353      C1402   1.453       .  S
N1354      N1361   1.319       .  A
N1354      N1384   1.323       .  A
N1354     Co1387   2.082       .  S
N1355      N1373   1.320       .  A
N1355      N1391   1.323       .  A
N1356      C1385   1.350       .  A
N1356      N1366   1.326       .  A
H1357      C1382   1.081       .  S
N1358      N1379   1.323       .  A
N1359      N1377   1.320       .  A
N1359      N1364   1.326       .  A
N1359     Co2012   2.083   1_545  S
C1360      N1364   1.349       .  A
C1360      C1388   1.458       .  S
C1360      C1420   1.467       .  S
N1361      C1376   1.346       .  A
N1361     Co1383   2.091       .  S
C1362      N1390   1.335       .  A
C1362      C1365   1.453       .  S
C1362      H1396   1.082       .  S
C1365      C1408   1.463       .  S
N1366     Co2010   2.091   1_545  S
N1367      C1393   1.341       .  A
N1367      N1369   1.321       .  A
N1367     Co2043   2.080   1_545  S
N1368      C1382   1.339       .  A
N1369      N1397   1.323       .  A
N1369     Co2047   2.088   1_545  S
H1370      C1393   1.081       .  S
H1371      C1388   1.081       .  S
N1372     Co2012   2.074   1_545  S
N1373     Co1387   2.073       .  S
N1374      N1386   1.328       .  A
N1374     Co2043   2.090   1_545  S
C1375      N1379   1.348       .  A
C1376      C1395   1.463       .  S
C1376      H1380   1.081       .  S
N1377      C1388   1.340       .  A
N1377     Co2047   2.086   1_545  S
C1381      N1397   1.349       .  A
C1381      C1393   1.457       .  S
C1381      C1414   1.463       .  S
Co1383     N2027   2.078       .  S
Co1383     N2034   2.090       .  S
Co1383    Cl1394   2.474       .  S
N1384      C1395   1.347       .  A
Co1387     N2029   2.079       .  S
Co1387     N2037   2.085       .  S
Co1387    Cl1394   2.425       .  S
N1390     Co2010   2.075   1_545  S
C1398      N1399   1.362       .  A
C1398      N1403   1.356       .  A
C1398      C1881   1.471       .  S
N1399      C1400   1.358       .  A
C1400      N1401   1.354       .  A
C1400      C1442   1.462       .  S
N1401      C1402   1.352       .  A
C1402      N1403   1.353       .  A
C1404      N1405   1.362       .  A
C1404      N1409   1.364       .  A
C1404      C1861   1.480       .  S
N1405      C1406   1.357       .  A
C1406      N1407   1.351       .  A
C1406      C1430   1.462       .  S
N1407      C1408   1.353       .  A
C1408      N1409   1.361       .  A
C1410      N1411   1.353       .  A
C1410      N1415   1.361       .  A
C1410      C1850   1.475       .  S
N1411      C1412   1.354       .  A
C1412      N1413   1.354       .  A
C1412      C1437   1.454       .  S
N1413      C1414   1.356       .  A
C1414      N1415   1.360       .  A
C1416      N1417   1.362       .  A
C1416      N1421   1.363       .  A
C1416      C1830   1.485       .  S
N1417      C1418   1.359       .  A
C1418      N1419   1.355       .  A
C1418      C1458   1.465       .  S
N1419      C1420   1.355       .  A
C1420      N1421   1.360       .  A
C1422      N1440   1.349       .  A
C1422      C1459   1.453       .  S
N1423      N1440   1.326       .  A
N1423      N1445   1.321       .  A
N1423     Co1460   2.086       .  S
C1424      N1449   1.342       .  A
C1424      C1462   1.460       .  S
C1424      H1469   1.081       .  S
H1425      C1466   1.081       .  S
C1426      N1450   1.338       .  A
C1426      C1430   1.457       .  S
C1426      H1455   1.082       .  S
Co1427     N1445   2.077       .  S
Co1427     N1435   2.097       .  S
Co1427     N1467   2.081       .  S
Co1427     N1443   2.088       .  S
Co1427    Cl1471   2.430       .  S
N1428      C1466   1.337       .  A
N1428      N1435   1.319       .  A
N1428     Co1429   2.063       .  S
Co1429     N1432   2.079       .  S
Co1429     N1449   2.084       .  S
Co1429     N1436   2.061       .  S
Co1429    Cl1471   2.467       .  S
C1430      N1468   1.349       .  A
N1431      N1438   1.321       .  A
N1431      N1461   1.325       .  A
N1431     Co1464   2.087       .  S
N1432      N1450   1.319       .  A
N1432      N1468   1.326       .  A
N1433      C1462   1.350       .  A
N1433      N1443   1.325       .  A
H1434      C1459   1.082       .  S
N1435      N1456   1.326       .  A
N1436      N1454   1.320       .  A
N1436      N1441   1.320       .  A
C1437      N1441   1.344       .  A
C1437      C1465   1.458       .  S
N1438      C1453   1.340       .  A
N1438     Co1460   2.084       .  S
C1439      N1467   1.335       .  A
C1439      C1442   1.452       .  S
C1439      H1473   1.081       .  S
C1442      N1463   1.351       .  A
N1443      N1449   1.318       .  A
N1444      C1470   1.345       .  A
N1444      N1446   1.320       .  A
N1444     Co1460   2.090       .  S
N1445      C1459   1.336       .  A
N1446      N1474   1.323       .  A
N1446     Co1464   2.082       .  S
H1447      C1470   1.081       .  S
H1448      C1465   1.081       .  S
N1450     Co1464   2.083       .  S
N1451      N1463   1.327       .  A
N1451      N1467   1.322       .  A
N1451     Co1460   2.088       .  S
C1452      N1456   1.352       .  A
C1452      C1466   1.451       .  S
C1453      C1472   1.458       .  S
C1453      H1457   1.081       .  S
N1454      C1465   1.341       .  A
N1454     Co1464   2.086       .  S
C1458      N1474   1.347       .  A
C1458      C1470   1.461       .  S
Co1460    Cl1471   2.474       .  S
N1461      C1472   1.348       .  A
Co1464    Cl1471   2.430       .  S
C1475      C1921   1.496       .  S
C1475      C1476   1.424       .  A
C1475      C1480   1.405       .  A
C1476      C1870   1.496       .  S
C1476      C1477   1.410       .  A
C1477      H2142   1.085       .  S
C1477      C1478   1.408       .  A
C1478      C1781   1.497       .  S
C1478      C1479   1.420       .  A
C1479      C1810   1.492       .  S
C1479      C1480   1.401       .  A
C1480      H1481   1.085       .  S
H1482      C2137   1.085   1_545  S
C1483      C1890   1.492       .  S
C1483      C1484   1.422       .  A
C1483      C1488   1.405       .  A
C1485      H1490   1.085   1_455  S
C1486      C1487   1.420       .  A
C1487      C1750   1.490       .  S
C1487      C1488   1.404   1_556  A
C1488      H1489   1.085       .  S
C1491      C1841   1.494       .  S
C1491      C1492   1.422       .  A
C1491      C1496   1.407       .  A
C1492      C1961   1.499       .  S
C1492      C1493   1.407       .  A
C1493      C1494   1.407       .  A
C1494      C1730   1.493       .  S
C1494      C1495   1.422       .  A
C1495      C1701   1.496       .  S
C1495      C1496   1.407       .  A
C1496      H1497   1.085       .  S
C1499      C2481   1.500       .  S
C1499      C1500   1.428       .  A
C1499      C1504   1.422       .  A
C1500      C1941   1.483       .  S
C1500      C1501   1.394       .  A
C1501      H1506   1.090       .  S
C1501      C1502   1.379       .  A
C1502      C1690   1.402   1_554  S
C1502      C1503   1.370   1_554  A
C1503      C1670   1.530       .  S
C1503      C1504   1.423   1_556  A
C1504      H2165   1.087       .  S
H1505      C2164   1.086       .  S
C1507      N1508   1.358       .  A
C1507      N1512   1.360       .  A
C1507      C1681   1.487       .  S
N1508      C1509   1.357       .  A
C1509      N1510   1.355       .  A
C1509      C1543   1.460       .  S
N1510      C1511   1.355       .  A
C1511      N1512   1.359       .  A
C1511      C1638   1.463       .  S
C1513      N1514   1.364       .  A
C1513      N1518   1.361       .  A
C1513      C1770   1.477       .  S
N1514      C1515   1.360       .  A
C1515      N1516   1.354       .  A
C1515      C1563   1.465       .  S
N1516      C1517   1.353       .  A
C1517      N1518   1.357       .  A
C1517      C1616   1.462       .  S
C1519      N1520   1.364       .  A
C1519      N1524   1.356       .  A
C1519      C1661   1.499       .  S
N1520      C1521   1.366       .  A
C1521      N1522   1.357       .  A
C1521      C1623   1.467       .  S
N1522      C1523   1.352       .  A
C1523      N1524   1.352       .  A
C1523      C1579   1.461       .  S
C1525      N1526   1.358       .  A
C1525      N1530   1.360       .  A
C1525      C1741   1.475       .  S
N1526      C1527   1.357       .  A
C1527      N1528   1.357       .  A
C1527      C1648   1.460       .  S
N1528      C1529   1.356       .  A
C1529      N1530   1.358       .  A
C1529      C1593   1.464       .  S
C1531      N1532   1.361       .  A
C1531      N1536   1.359       .  A
C1531      C1710   1.477       .  S
N1532      C1533   1.360       .  A
C1533      N1534   1.354       .  A
C1533      C1558   1.460       .  S
N1534      C1535   1.352       .  A
C1535      N1536   1.356       .  A
C1535      C1644   1.458       .  S
C1537      N1538   1.356       .  A
C1537      N1542   1.362       .  A
C1537      C1790   1.484       .  S
N1538      C1539   1.358       .  A
C1539      N1540   1.359       .  A
C1539      C1658   1.467       .  S
N1540      C1541   1.360       .  A
C1541      N1542   1.364       .  A
C1541      C1583   1.475       .  S
C1543      N1561   1.345       .  A
C1543      C1580   1.459       .  S
N1544      N1561   1.322       .  A
N1544      N1566   1.321       .  A
N1544     Co1581   2.066       .  S
C1545      N1570   1.342       .  A
C1545      C1583   1.458       .  S
C1545      H1590   1.081       .  S
H1546      C1587   1.081       .  S
C1547      N1571   1.336       .  A
C1547      C1551   1.455       .  S
C1547      H1576   1.081       .  S
Co1548     N1566   2.096       .  S
Co1548     N1556   2.078       .  S
Co1548     N1588   2.078       .  S
Co1548     N1564   2.105       .  S
Co1548    Cl1592   2.430       .  S
N1549      C1587   1.345       .  A
N1549      N1556   1.319       .  A
N1549     Co1550   2.085       .  S
Co1550     N1553   2.084       .  S
Co1550     N1570   2.086       .  S
Co1550     N1557   2.083       .  S
Co1550    Cl1592   2.475       .  S
C1551      N1589   1.350       .  A
C1551      C1606   1.464       .  S
N1552      N1559   1.318       .  A
N1552      N1582   1.325       .  A
N1552     Co1585   2.086       .  S
N1553      N1571   1.322       .  A
N1553      N1589   1.327       .  A
N1554      C1583   1.353       .  A
N1554      N1564   1.327       .  A
H1555      C1580   1.081       .  S
N1556      N1577   1.322       .  A
N1557      N1575   1.321       .  A
N1557      N1562   1.326       .  A
C1558      N1562   1.349       .  A
C1558      C1586   1.454       .  S
N1559      C1574   1.342       .  A
N1559     Co1581   2.081       .  S
C1560      N1588   1.336       .  A
C1560      C1563   1.454       .  S
C1560      H1594   1.082       .  S
C1563      N1584   1.351       .  A
N1564      N1570   1.322       .  A
N1565      C1591   1.337       .  A
N1565      N1567   1.321       .  A
N1565     Co1581   2.071       .  S
N1566      C1580   1.342       .  A
N1567      N1595   1.326       .  A
N1567     Co1585   2.094       .  S
H1568      C1591   1.081       .  S
H1569      C1586   1.082       .  S
N1571     Co1585   2.084       .  S
N1572      N1584   1.328       .  A
N1572      N1588   1.320       .  A
N1572     Co1581   2.088       .  S
C1573      N1577   1.346       .  A
C1573      C1587   1.461       .  S
C1573      C1600   1.463       .  S
C1574      C1593   1.458       .  S
C1574      H1578   1.081       .  S
N1575      C1586   1.337       .  A
N1575     Co1585   2.078       .  S
C1579      N1595   1.350       .  A
C1579      C1591   1.454       .  S
Co1581    Cl1592   2.470       .  S
N1582      C1593   1.349       .  A
Co1585    Cl1592   2.429       .  S
C1596      N1597   1.360       .  A
C1596      N1601   1.361       .  A
C1596      C1721   1.477       .  S
N1597      C1598   1.357       .  A
C1598      N1599   1.355       .  A
C1598      C1608   1.464       .  S
N1599      C1600   1.356       .  A
C1600      N1601   1.359       .  A
C1602      N1603   1.361       .  A
C1602      N1607   1.363       .  A
C1602      C1801   1.478       .  S
N1603      C1604   1.358       .  A
C1604      N1605   1.351       .  A
C1604      C1628   1.464       .  S
N1605      C1606   1.354       .  A
C1606      N1607   1.360       .  A
C1608      N1626   1.350       .  A
C1608      C1645   1.457       .  S
N1609      N1626   1.326       .  A
N1609      N1631   1.319       .  A
C1610      N1635   1.342       .  A
C1610      C1648   1.459       .  S
C1610      H1655   1.081       .  S
H1611      C1652   1.081       .  S
C1612      N1636   1.336       .  A
C1612      C1616   1.453       .  S
C1612      H1641   1.082       .  S
Co1613     N1653   2.096       .  S
Co1613     N1629   2.080       .  S
Co1613    Cl1657   2.432       .  S
N1614      C1652   1.339       .  A
N1614      N1621   1.321       .  A
Co1615     N1635   2.083       .  S
Co1615     N2282   2.077       .  S
Co1615    Cl1657   2.471       .  S
C1616      N1654   1.351       .  A
N1617      N1624   1.321       .  A
N1617      N1647   1.328       .  A
N1618      N1636   1.319       .  A
N1618      N1654   1.328       .  A
N1619      C1648   1.347       .  A
N1619      N1629   1.323       .  A
H1620      C1645   1.082       .  S
N1621      N1642   1.325       .  A
N1622      N1640   1.322       .  A
N1622      N1627   1.325       .  A
N1622     Co2275   2.073   1_545  S
C1623      N1627   1.347       .  A
C1623      C1651   1.461       .  S
N1624      C1639   1.337       .  A
C1625      N1653   1.340       .  A
C1625      C1628   1.460       .  S
C1625      H1659   1.081       .  S
C1628      N1649   1.347       .  A
N1629      N1635   1.319       .  A
N1630      C1656   1.341       .  A
N1630      N1632   1.319       .  A
N1630     Co2306   2.075   1_545  S
N1631      C1645   1.340       .  A
N1632      N1660   1.323       .  A
N1632     Co1650   2.081       .  S
H1633      C1656   1.081   1_565  S
H1634      C1651   1.081       .  S
N1637      N1649   1.325       .  A
N1637      N1653   1.321       .  A
N1637     Co1646   2.074       .  S
C1638      N1642   1.350       .  A
C1638      C1652   1.454       .  S
C1639      C1658   1.453       .  S
C1639      H1643   1.081   1_545  S
N1640      C1651   1.340       .  A
N1640     Co1650   2.101       .  S
C1644      N1660   1.348       .  A
C1644      C1656   1.456       .  S
Co1646     N2290   2.084       .  S
Co1646    Cl1657   2.467       .  S
N1647      C1658   1.353       .  A
Co1650    Cl2317   2.431   1_545  S
Cl1657    Co2310   2.431       .  S
C1661      C1662   1.421       .  A
C1661      C1666   1.421       .  A
C1662      C1663   1.402       .  A
C1662     Br1674   1.937       .  S
C1663      C1664   1.407       .  A
C1663     Br1678   1.936       .  S
C1664      C1667   1.498       .  S
C1664      C1665   1.411       .  A
C1665      C1666   1.415       .  A
C1665     Br1673   1.933       .  S
C1666     Br1677   1.931       .  S
C1667      C2328   1.437   1_545  A
C1667      C1672   1.392       .  A
C1668      C2327   1.438       .  A
C1668      C1669   1.489       .  A
C1668     Br1679   1.957       .  S
C1669      C1670   1.515       .  A
C1669     Br1675   3.708       .  S
C1670      C2331   1.406       .  A
C1671      C2330   1.406   1_545  A
C1671      C1672   1.378       .  A
C1671     Br1680   1.940       .  S
C1672     Br1676   1.938       .  S
C1681      C1682   1.402       .  A
C1681      C1686   1.407       .  A
C1682      C1683   1.411       .  A
C1682     Br1694   1.939       .  S
C1683      C1684   1.427       .  A
C1683     Br1698   1.914       .  S
C1684      C1687   1.536       .  S
C1684      C1685   1.438       .  A
C1685      C1686   1.416       .  A
C1685     Br1693   1.933       .  S
C1686     Br1697   1.944       .  S
C1687      C1688   1.629       .  A
C1687      C1692   1.645       .  A
C1688      C1689   1.612       .  A
C1688     Br1699   1.926       .  S
C1689      C1690   1.625       .  A
C1689     Br1695   1.919       .  S
C1690      C1691   1.622       .  A
C1691      C1692   1.613       .  A
C1691     Br1700   1.920       .  S
C1692     Br1696   1.936       .  S
C1701      C1702   1.413       .  A
C1701      C1706   1.417       .  A
C1702      C1703   1.408       .  A
C1702     Br1714   1.920       .  S
C1703      C1704   1.407       .  A
C1703     Br1718   1.932       .  S
C1704      C1707   1.487       .  S
C1704      C1705   1.407       .  A
C1705      C1706   1.410       .  A
C1705     Br1713   1.930       .  S
C1706     Br1717   1.926       .  S
C1707      C1708   1.412       .  A
C1707      C1712   1.408       .  A
C1708      C1709   1.410       .  A
C1708     Br1719   1.929       .  S
C1709      C1710   1.407       .  A
C1709     Br1715   1.925       .  S
C1710      C1711   1.411       .  A
C1711      C1712   1.406       .  A
C1711     Br1720   1.932       .  S
C1712     Br1716   1.929       .  S
C1721      C1722   1.413       .  A
C1721      C1726   1.409       .  A
C1722      C1723   1.406       .  A
C1722     Br1734   1.934       .  S
C1723      C1724   1.409       .  A
C1724      C1727   1.487       .  S
C1724      C1725   1.412       .  A
C1725      C1726   1.410       .  A
C1725     Br1733   1.929       .  S
C1726     Br1737   1.928       .  S
C1727      C1728   1.407       .  A
C1727      C1732   1.409       .  A
C1728      C1729   1.407   1_655  A
C1728     Br1739   1.931   1_655  S
C1729     Br1735   1.926       .  S
C1730      C1731   1.412       .  A
C1731     Br1740   1.923       .  S
C1732     Br1736   1.930       .  S
C1741      C1742   1.413       .  A
C1741      C1746   1.410       .  A
C1742      C1743   1.403       .  A
C1742     Br1754   1.933       .  S
C1743      C1744   1.406       .  A
C1743     Br1758   1.931       .  S
C1744      C1747   1.481       .  S
C1744      C1745   1.411       .  A
C1745      C1746   1.409       .  A
C1745     Br1753   1.929       .  S
C1746     Br1757   1.929       .  S
C1747      C1748   1.407       .  A
C1747      C1752   1.405       .  A
C1748      C1749   1.407       .  A
C1748     Br1759   1.929       .  S
C1749      C1750   1.411       .  A
C1749     Br1755   1.921       .  S
C1750      C1751   1.415       .  A
C1751      C1752   1.405       .  A
C1751     Br1760   1.924       .  S
C1752     Br1756   1.932       .  S
C1761      C1766   1.415   1_455  A
C1762      C1763   1.409       .  A
C1762     Br1774   1.923       .  S
C1763     Br1778   1.929       .  S
C1764      C1767   1.484       .  S
C1764      C1765   1.405       .  A
C1765      C1766   1.405       .  A
C1765     Br1773   1.933       .  S
C1766     Br1777   1.923       .  S
C1767      C1768   1.408       .  A
C1767      C1772   1.410       .  A
C1768      C1769   1.406       .  A
C1768     Br1779   1.929       .  S
C1769      C1770   1.412       .  A
C1769     Br1775   1.932       .  S
C1770      C1771   1.408       .  A
C1771      C1772   1.409       .  A
C1771     Br1780   1.926       .  S
C1772     Br1776   1.929       .  S
C1781      C2442   1.411       .  A
C1781      C1786   1.416       .  A
C1782      C2441   1.411   1_545  A
C1782      C1783   1.409       .  A
C1782     Br1794   1.925       .  S
C1783      C1784   1.409       .  A
C1783     Br1798   1.929       .  S
C1784      C1787   1.495       .  S
C1784      C2445   1.410   1_545  A
C1785      C2444   1.409       .  A
C1785      C1786   1.412       .  A
C1785     Br1793   1.928       .  S
C1786     Br1797   1.931       .  S
C1787      C1788   1.411       .  A
C1787      C1792   1.411   1_545  A
C1788      C1789   1.409       .  A
C1788     Br1799   1.929       .  S
C1789      C1790   1.410       .  A
C1789     Br1795   1.930       .  S
C1790      C1791   1.412       .  A
C1791      C1792   1.413   1_545  A
C1791     Br1800   1.929   1_545  S
C1792     Br2456   1.928       .  S
Br1796     C2452   1.927       .  S
C1801      C1802   1.411       .  A
C1801      C1806   1.409       .  A
C1802      C1803   1.410       .  A
C1802     Br1814   1.930       .  S
C1803      C1804   1.411       .  A
C1803     Br1818   1.930       .  S
C1804      C1807   1.488       .  S
C1804      C1805   1.410       .  A
C1805      C1806   1.406       .  A
C1805     Br1813   1.927       .  S
C1806     Br1817   1.931       .  S
C1807      C1808   1.409       .  A
C1807      C1812   1.410       .  A
C1808      C1809   1.405       .  A
C1808     Br1819   1.931       .  S
C1809      C1810   1.410       .  A
C1809     Br1815   1.924       .  S
C1810      C1811   1.414       .  A
C1811      C1812   1.410       .  A
C1811     Br1820   1.931       .  S
C1812     Br1816   1.930       .  S
C1821      C2159   1.493   1_545  S
C1821      C1822   1.414       .  A
C1821      C1826   1.410       .  A
C1822      C1823   1.412       .  A
C1822     Br2494   1.930   1_545  S
C1823      C1824   1.410       .  A
C1823     Br1838   1.928       .  S
C1824      C1827   1.489       .  S
C1824      C1825   1.408       .  A
C1825      C1826   1.406       .  A
C1825     Br1833   1.930       .  S
C1826     Br1837   1.922       .  S
C1827      C1828   1.410       .  A
C1827      C1832   1.408       .  A
C1828      C1829   1.411       .  A
C1828     Br1839   1.929       .  S
C1829      C1830   1.412       .  A
C1829     Br1835   1.928       .  S
C1830      C1831   1.415       .  A
C1831      C1832   1.408       .  A
C1831     Br1840   1.933       .  S
C1832     Br2496   1.931   1_545  S
Br1834     C2482   1.929       .  S
Br1836     C2492   1.932       .  S
C1841      C1842   1.412       .  A
C1841      C1846   1.414       .  A
C1842      C1843   1.408       .  A
C1842     Br1854   1.924       .  S
C1843      C1844   1.409       .  A
C1843     Br1858   1.930       .  S
C1844      C1847   1.484       .  S
C1844      C1845   1.407       .  A
C1845      C1846   1.406       .  A
C1845     Br1853   1.932       .  S
C1846     Br1857   1.926       .  S
C1847      C1848   1.410       .  A
C1847      C1852   1.408       .  A
C1848      C1849   1.405       .  A
C1848     Br1859   1.923       .  S
C1849      C1850   1.409       .  A
C1849     Br1855   1.933       .  S
C1850      C1851   1.414       .  A
C1851      C1852   1.408       .  A
C1851     Br1860   1.931       .  S
C1852     Br1856   1.931       .  S
C1861      C1862   1.412       .  A
C1861      C1866   1.409       .  A
C1862      C1863   1.407       .  A
C1862     Br1874   1.932       .  S
C1863      C1864   1.408       .  A
C1863     Br1878   1.930       .  S
C1864      C1867   1.491       .  S
C1864      C1865   1.413       .  A
C1865      C1866   1.412       .  A
C1865     Br1873   1.928       .  S
C1866     Br1877   1.928       .  S
C1867      C1868   1.408       .  A
C1867      C2532   1.410   1_545  A
C1868      C1869   1.411       .  A
C1868     Br1879   1.929       .  S
C1869      C2530   1.416       .  A
C1869     Br1875   1.933       .  S
C1870      C2529   1.416       .  A
C1870      C1871   1.412       .  A
C1871      C1872   1.409       .  A
C1871     Br1880   1.924       .  S
C1872      C2527   1.409       .  A
C1872     Br1876   1.931       .  S
C1881      C1882   1.409       .  A
C1881      C1886   1.414       .  A
C1882      C1883   1.402       .  A
C1882     Br1894   1.933       .  S
C1883      C1884   1.407       .  A
C1883     Br1898   1.926       .  S
C1884      C1887   1.478       .  S
C1884      C1885   1.408       .  A
C1885      C1886   1.406       .  A
C1885     Br1893   1.931       .  S
C1886     Br1897   1.933       .  S
C1887      C1888   1.405       .  A
C1887      C1892   1.406       .  A
C1888      C1889   1.403       .  A
C1888     Br1899   1.934       .  S
C1889      C1890   1.415       .  A
C1889     Br1895   1.925       .  S
C1890      C1891   1.413       .  A
C1891      C1892   1.408       .  A
C1892     Br1896   1.931       .  S
C1901      C1902   1.416   1_455  A
C1902      C1903   1.403       .  A
C1902     Br1914   1.923       .  S
C1903      C1904   1.404       .  A
C1903     Br1918   1.933       .  S
C1904      C1907   1.480       .  S
C1904      C1905   1.407   1_655  A
C1906     Br1917   1.923       .  S
C1907      C1908   1.408       .  A
C1907      C1912   1.407       .  A
C1908      C1909   1.404       .  A
C1909      C1910   1.412       .  A
C1909     Br1915   1.933       .  S
C1910      C1911   1.415       .  A
C1911      C1912   1.407       .  A
C1911     Br1920   1.933       .  S
C1912     Br1916   1.931       .  S
C1921      C1922   1.413       .  A
C1921      C1926   1.419       .  A
C1922      C1923   1.409       .  A
C1922     Br1934   1.922       .  S
C1923      C1924   1.408       .  A
C1923     Br1938   1.931       .  S
C1924      C1927   1.487       .  S
C1924      C1925   1.406       .  A
C1925      C1926   1.408       .  A
C1925     Br1933   1.930       .  S
C1926     Br1937   1.934       .  S
C1927      C1928   1.411       .  A
C1927      C1932   1.407       .  A
C1928      C1929   1.410       .  A
C1928     Br1939   1.929       .  S
C1929      C1930   1.410       .  A
C1929     Br1935   1.928       .  S
C1930      C1931   1.416       .  A
C1931      C1932   1.407       .  A
C1931     Br1940   1.933       .  S
C1932     Br1936   1.931       .  S
C1941      C1942   1.411       .  A
C1941      C1946   1.417       .  A
C1942      C1943   1.408       .  A
C1942     Br1954   1.926       .  S
C1943      C1944   1.408       .  A
C1943     Br1958   1.929       .  S
C1944      C1947   1.481       .  S
C1944      C1945   1.405       .  A
C1945      C1946   1.403       .  A
C1945     Br1953   1.932       .  S
C1946     Br1957   1.934       .  S
C1947      C1948   1.405       .  A
C1947      C1952   1.412       .  A
C1948      C1949   1.404       .  A
C1948     Br1959   1.932       .  S
C1949      C1950   1.413       .  A
C1949     Br1955   1.932       .  S
C1950      C1951   1.408       .  A
C1951      C1952   1.410       .  A
C1951     Br1960   1.929       .  S
C1952     Br1956   1.929       .  S
C1961      C1966   1.414       .  A
C1962      C1963   1.409   1_455  A
C1962     Br1974   1.925       .  S
C1963      C1964   1.407       .  A
C1963     Br1978   1.931   1_655  S
C1964      C1967   1.489       .  S
C1964      C1965   1.409       .  A
C1966     Br1977   1.925       .  S
C1967      C1968   1.410       .  A
C1967      C1972   1.410       .  A
C1968      C1969   1.408       .  A
C1968     Br1979   1.931       .  S
C1969      C1970   1.413       .  A
C1969     Br1975   1.931       .  S
C1970      C1971   1.411       .  A
C1971      C1972   1.408       .  A
C1971     Br1980   1.932   1_655  S
C1981      N1982   1.358       .  A
C1981      N1986   1.357       .  A
C1981      C2630   1.476       .  S
N1982      C1983   1.358       .  A
C1983      N1984   1.356       .  A
C1983      C2112   1.463       .  S
N1984      C1985   1.357       .  A
C1985      N1986   1.356       .  A
C1985      C2005   1.459       .  S
C1987      N1988   1.358       .  A
C1987      N1992   1.359       .  A
C1987      C2610   1.470       .  S
N1988      C1989   1.355       .  A
C1989      N1990   1.355       .  A
C1989      C2035   1.458       .  S
N1990      C1991   1.356       .  A
C1991      N1992   1.358       .  A
C1991      C2082   1.460       .  S
C1993      N1994   1.359       .  A
C1993      N1998   1.361       .  A
C1993      C2590   1.482       .  S
N1994      C1995   1.357       .  A
C1995      N1996   1.358       .  A
C1995      C2122   1.467       .  S
N1996      C1997   1.359       .  A
C1997      N1998   1.359       .  A
C1997      C2055   1.468       .  S
C1999      N2000   1.358       .  A
C1999      N2004   1.355       .  A
C1999      C2570   1.478       .  S
N2000      C2001   1.358       .  A
C2001      N2002   1.360       .  A
C2001      C2132   1.463       .  S
N2002      C2003   1.357       .  A
C2003      N2004   1.355       .  A
C2003      C2045   1.463       .  S
C2005      C2042   1.454       .  S
N2006      N2023   1.324       .  A
N2006     Co2043   2.079       .  S
C2007      N2032   1.337       .  A
C2007      H2052   1.081       .  S
H2008      C2049   1.081       .  S
C2009      N2033   1.337       .  A
C2009      C2013   1.454       .  S
C2009      H2038   1.081       .  S
Co2010     N2028   2.081       .  S
Co2010     N2018   2.080       .  S
N2011      C2049   1.342       .  A
N2011     Co2012   2.078       .  S
Co2012     N2015   2.072       .  S
Co2012    Cl2054   2.470       .  S
C2013      N2051   1.347       .  A
C2013      C2062   1.456       .  S
N2014      N2021   1.319       .  A
N2014      N2044   1.323       .  A
N2014     Co2047   2.082       .  S
N2015      N2033   1.320       .  A
N2015      N2051   1.323       .  A
N2016      C2045   1.350       .  A
N2016      N2026   1.327       .  A
H2017      C2042   1.081       .  S
N2018      N2039   1.323       .  A
N2019      N2037   1.319       .  A
N2019      N2024   1.326       .  A
C2020      N2024   1.349       .  A
C2020      C2048   1.458       .  S
C2020      C2080   1.465       .  S
N2021      C2036   1.346       .  A
N2021     Co2043   2.091       .  S
C2022      N2050   1.335       .  A
C2022      C2025   1.453       .  S
C2022      H2056   1.082       .  S
C2025      C2068   1.463       .  S
N2027      C2053   1.340       .  A
N2027      N2029   1.321       .  A
N2028      C2042   1.339       .  A
N2029      N2057   1.322       .  A
H2030      C2053   1.081       .  S
H2031      C2048   1.081       .  S
N2033     Co2047   2.080       .  S
N2034      N2046   1.328       .  A
C2035      N2039   1.347       .  A
C2036      C2055   1.463       .  S
C2036      H2040   1.081       .  S
N2037      C2048   1.340       .  A
C2041      N2057   1.346       .  A
C2041      C2053   1.457       .  S
C2041      C2074   1.458       .  S
Co2043    Cl2054   2.474       .  S
N2044      C2055   1.347       .  A
Co2047    Cl2054   2.426       .  S
C2058      N2059   1.361       .  A
C2058      N2063   1.357       .  A
C2058      C2541   1.471       .  S
N2059      C2060   1.357       .  A
C2060      N2061   1.354       .  A
C2060      C2102   1.461       .  S
N2061      C2062   1.352       .  A
C2062      N2063   1.354       .  A
C2064      N2065   1.361       .  A
C2064      N2069   1.363       .  A
C2064      C2521   1.479       .  S
N2065      C2066   1.357       .  A
C2066      N2067   1.352       .  A
C2066      C2090   1.462       .  S
N2067      C2068   1.354       .  A
C2068      N2069   1.361       .  A
C2070      N2071   1.352       .  A
C2070      N2075   1.358       .  A
C2070      C2510   1.469       .  S
N2071      C2072   1.353       .  A
C2072      N2073   1.354       .  A
C2072      C2097   1.452       .  S
N2073      C2074   1.357       .  A
C2074      N2075   1.358       .  A
C2076      N2077   1.364       .  A
C2076      N2081   1.362       .  A
C2076      C2490   1.491       .  S
N2077      C2078   1.361       .  A
C2078      N2079   1.355       .  A
C2078      C2118   1.468       .  S
N2079      C2080   1.354       .  A
C2080      N2081   1.360       .  A
C2082      N2100   1.350       .  A
C2082      C2119   1.453       .  S
N2083      N2100   1.326       .  A
N2083      N2105   1.321       .  A
N2083     Co2120   2.090       .  S
C2084      N2109   1.343       .  A
C2084      C2122   1.461       .  S
C2084      H2129   1.081       .  S
H2085      C2126   1.081       .  S
C2086      N2110   1.338       .  A
C2086      C2090   1.457       .  S
C2086      H2115   1.082       .  S
Co2087     N2105   2.075       .  S
Co2087     N2095   2.094       .  S
Co2087     N2127   2.078       .  S
Co2087     N2103   2.087       .  S
Co2087    Cl2131   2.430       .  S
N2088      C2126   1.337       .  A
N2088      N2095   1.319       .  A
N2088     Co2089   2.066       .  S
Co2089     N2092   2.080       .  S
Co2089     N2109   2.085       .  S
Co2089     N2096   2.062       .  S
Co2089    Cl2131   2.467       .  S
C2090      N2128   1.349       .  A
N2091      N2098   1.321       .  A
N2091      N2121   1.324       .  A
N2091     Co2124   2.083       .  S
N2092      N2110   1.320       .  A
N2092      N2128   1.326       .  A
N2093      C2122   1.350       .  A
N2093      N2103   1.325       .  A
H2094      C2119   1.082       .  S
N2095      N2116   1.326       .  A
N2096      N2114   1.320       .  A
N2096      N2101   1.319       .  A
C2097      N2101   1.344       .  A
C2097      C2125   1.457       .  S
N2098      C2113   1.341       .  A
N2098     Co2120   2.084       .  S
C2099      N2127   1.335       .  A
C2099      C2102   1.452       .  S
C2099      H2133   1.082       .  S
C2102      N2123   1.351       .  A
N2103      N2109   1.318       .  A
N2104      C2130   1.346       .  A
N2104      N2106   1.321       .  A
N2104     Co2120   2.093       .  S
N2105      C2119   1.336       .  A
N2106      N2134   1.323       .  A
N2106     Co2124   2.085       .  S
H2107      C2130   1.081       .  S
H2108      C2125   1.081       .  S
N2110     Co2124   2.084       .  S
N2111      N2123   1.327       .  A
N2111      N2127   1.322       .  A
N2111     Co2120   2.088       .  S
C2112      N2116   1.351       .  A
C2112      C2126   1.452       .  S
C2113      C2132   1.459       .  S
C2113      H2117   1.081       .  S
N2114      C2125   1.341       .  A
N2114     Co2124   2.082       .  S
C2118      N2134   1.347       .  A
C2118      C2130   1.462       .  S
Co2120    Cl2131   2.474       .  S
N2121      C2132   1.347       .  A
Co2124    Cl2131   2.430       .  S
C2135      C2581   1.500       .  S
C2135      C2136   1.425       .  A
C2135      C2140   1.406       .  A
C2136      C2530   1.495   1_565  S
C2136      C2137   1.410       .  A
C2137      C2138   1.407       .  A
C2138      C2441   1.500       .  S
C2138      C2139   1.421       .  A
C2139      C2470   1.491       .  S
C2139      C2140   1.402       .  A
C2140      H2141   1.085       .  S
C2143      C2550   1.492       .  S
C2143      C2144   1.423       .  A
C2143      C2148   1.405       .  A
C2145      H2150   1.085   1_455  S
C2146      C2147   1.420       .  A
C2147      C2410   1.491       .  S
C2147      C2148   1.404   1_556  A
C2148      H2149   1.085       .  S
C2151      C2501   1.492       .  S
C2151      C2152   1.422       .  A
C2151      C2156   1.407       .  A
C2152      C2621   1.500       .  S
C2152      C2153   1.406       .  A
C2153      C2154   1.408       .  A
C2154      C2390   1.491       .  S
C2154      C2155   1.422       .  A
C2155      C2361   1.498       .  S
C2155      C2156   1.406       .  A
C2156      H2157   1.085       .  S
C2159      C2160   1.427       .  A
C2159      C2164   1.417   1_565  A
C2160      C2601   1.484       .  S
C2160      C2161   1.395       .  A
C2161      H2166   1.090       .  S
C2161      C2162   1.381       .  A
C2162      C2350   1.401   1_554  S
C2162      C2163   1.370   1_554  A
C2163      C2330   1.527       .  S
C2163      C2164   1.418   1_566  A
C2167      N2168   1.360       .  A
C2167      N2172   1.360       .  A
C2167      C2341   1.489       .  S
N2168      C2169   1.359       .  A
C2169      N2170   1.355       .  A
C2169      C2203   1.464       .  S
N2170      C2171   1.356       .  A
C2171      N2172   1.360       .  A
C2171      C2298   1.464       .  S
C2173      N2174   1.364       .  A
C2173      N2178   1.360       .  A
C2173      C2430   1.477       .  S
N2174      C2175   1.360       .  A
C2175      N2176   1.355       .  A
C2175      C2223   1.467       .  S
N2176      C2177   1.354       .  A
C2177      N2178   1.356       .  A
C2177      C2276   1.462       .  S
C2179      N2180   1.364       .  A
C2179      N2184   1.355       .  A
C2179      C2321   1.497       .  S
N2180      C2181   1.366       .  A
C2181      N2182   1.358       .  A
C2181      C2283   1.467       .  S
N2182      C2183   1.352       .  A
C2183      N2184   1.351       .  A
C2183      C2239   1.461       .  S
C2185      N2186   1.358       .  A
C2185      N2190   1.360       .  A
C2185      C2401   1.474       .  S
N2186      C2187   1.357       .  A
C2187      N2188   1.358       .  A
C2187      C2308   1.461       .  S
N2188      C2189   1.357       .  A
C2189      N2190   1.358       .  A
C2189      C2253   1.466       .  S
C2191      N2192   1.362       .  A
C2191      N2196   1.361       .  A
C2191      C2370   1.479       .  S
N2192      C2193   1.360       .  A
C2193      N2194   1.355       .  A
C2193      C2218   1.463       .  S
N2194      C2195   1.354       .  A
C2195      N2196   1.357       .  A
C2195      C2304   1.462       .  S
C2197      N2198   1.354       .  A
C2197      N2202   1.362       .  A
C2197      C2450   1.481       .  S
N2198      C2199   1.356       .  A
C2199      N2200   1.358       .  A
C2199      C2318   1.463       .  S
N2200      C2201   1.360       .  A
C2201      N2202   1.364       .  A
C2201      C2243   1.474       .  S
C2203      N2221   1.345       .  A
C2203      C2240   1.462       .  S
N2204      N2221   1.323       .  A
N2204      N2226   1.321       .  A
N2204     Co2241   2.067       .  S
C2205      N2230   1.342       .  A
C2205      C2243   1.458       .  S
C2205      H2250   1.081       .  S
H2206      C2247   1.081       .  S
C2207      N2231   1.335       .  A
C2207      C2211   1.454       .  S
C2207      H2236   1.081       .  S
Co2208     N2226   2.102       .  S
Co2208     N2216   2.078       .  S
Co2208     N2248   2.077       .  S
Co2208     N2224   2.107       .  S
Co2208    Cl2252   2.430       .  S
N2209      C2247   1.345       .  A
N2209      N2216   1.320       .  A
N2209     Co2210   2.087       .  S
Co2210     N2213   2.088       .  S
Co2210     N2230   2.086       .  S
Co2210     N2217   2.088       .  S
Co2210    Cl2252   2.477       .  S
C2211      N2249   1.351       .  A
C2211      C2266   1.466       .  S
N2212      N2219   1.318       .  A
N2212      N2242   1.325       .  A
N2212     Co2245   2.086       .  S
N2213      N2231   1.322       .  A
N2213      N2249   1.328       .  A
N2214      C2243   1.353       .  A
N2214      N2224   1.327       .  A
H2215      C2240   1.081       .  S
N2216      N2237   1.322       .  A
N2217      N2235   1.320       .  A
N2217      N2222   1.327       .  A
C2218      N2222   1.350       .  A
C2218      C2246   1.454       .  S
N2219      C2234   1.343       .  A
N2219     Co2241   2.084       .  S
C2220      N2248   1.336       .  A
C2220      C2223   1.453       .  S
C2220      H2254   1.082       .  S
C2223      N2244   1.352       .  A
N2224      N2230   1.322       .  A
N2225      C2251   1.336       .  A
N2225      N2227   1.321       .  A
N2225     Co2241   2.070       .  S
N2226      C2240   1.343       .  A
N2227      N2255   1.326       .  A
N2227     Co2245   2.093       .  S
H2228      C2251   1.081       .  S
H2229      C2246   1.082       .  S
N2231     Co2245   2.084       .  S
N2232      N2244   1.329       .  A
N2232      N2248   1.320       .  A
N2232     Co2241   2.092       .  S
C2233      N2237   1.346       .  A
C2233      C2247   1.460       .  S
C2233      C2260   1.463       .  S
C2234      C2253   1.459       .  S
C2234      H2238   1.081       .  S
N2235      C2246   1.337       .  A
N2235     Co2245   2.078       .  S
C2239      N2255   1.350       .  A
C2239      C2251   1.454       .  S
Co2241    Cl2252   2.472       .  S
N2242      C2253   1.349       .  A
Co2245    Cl2252   2.430       .  S
C2256      N2257   1.359       .  A
C2256      N2261   1.361       .  A
C2256      C2381   1.477       .  S
N2257      C2258   1.357       .  A
C2258      N2259   1.354       .  A
C2258      C2268   1.461       .  S
N2259      C2260   1.355       .  A
C2260      N2261   1.359       .  A
C2262      N2263   1.362       .  A
C2262      N2267   1.363       .  A
C2262      C2461   1.480       .  S
N2263      C2264   1.358       .  A
C2264      N2265   1.352       .  A
C2264      C2288   1.468       .  S
N2265      C2266   1.355       .  A
C2266      N2267   1.360       .  A
C2268      N2286   1.349       .  A
C2268      C2305   1.456       .  S
N2269      N2286   1.325       .  A
N2269      N2291   1.318       .  A
C2270      N2295   1.343       .  A
C2270      C2308   1.460       .  S
C2270      H2315   1.081       .  S
H2271      C2312   1.081       .  S
C2272      N2296   1.336       .  A
C2272      C2276   1.453       .  S
C2272      H2301   1.082       .  S
Co2273     N2313   2.100       .  S
Co2273     N2289   2.076       .  S
Co2273    Cl2317   2.431       .  S
N2274      C2312   1.339       .  A
N2274      N2281   1.321       .  A
Co2275     N2295   2.086       .  S
Co2275    Cl2317   2.471       .  S
C2276      N2314   1.351       .  A
N2277      N2284   1.321       .  A
N2277      N2307   1.327       .  A
N2278      N2296   1.319       .  A
N2278      N2314   1.327       .  A
N2279      C2308   1.346       .  A
N2279      N2289   1.322       .  A
H2280      C2305   1.082       .  S
N2281      N2302   1.325       .  A
N2282      N2300   1.322       .  A
N2282      N2287   1.326       .  A
C2283      N2287   1.348       .  A
C2283      C2311   1.460       .  S
N2284      C2299   1.335       .  A
C2285      N2313   1.341       .  A
C2285      C2288   1.461       .  S
C2285      H2319   1.081       .  S
C2288      N2309   1.347       .  A
N2289      N2295   1.319       .  A
N2290      C2316   1.343       .  A
N2290      N2292   1.319       .  A
N2291      C2305   1.339       .  A
N2292      N2320   1.323       .  A
N2292     Co2310   2.082       .  S
H2293      C2316   1.081       .  S
H2294      C2311   1.081       .  S
N2297      N2309   1.326       .  A
N2297      N2313   1.321       .  A
N2297     Co2306   2.076       .  S
C2298      N2302   1.351       .  A
C2298      C2312   1.453       .  S
C2299      C2318   1.452       .  S
C2299      H2303   1.081       .  S
N2300      C2311   1.340       .  A
N2300     Co2310   2.097       .  S
C2304      N2320   1.347       .  A
C2304      C2316   1.459       .  S
Co2306    Cl2317   2.467       .  S
N2307      C2318   1.352       .  A
C2321      C2322   1.421       .  A
C2321      C2326   1.420       .  A
C2322      C2323   1.403       .  A
C2322     Br2334   1.937       .  S
C2323      C2324   1.408       .  A
C2323     Br2338   1.936       .  S
C2324      C2327   1.499       .  S
C2324      C2325   1.412       .  A
C2325      C2326   1.414       .  A
C2325     Br2333   1.933       .  S
C2326     Br2337   1.931       .  S
C2327      C2332   1.393       .  A
C2328      C2329   1.489       .  A
C2328     Br2339   1.955       .  S
C2329      C2330   1.513       .  A
C2329     Br2335   3.708       .  S
C2331      C2332   1.379       .  A
C2331     Br2340   1.939       .  S
C2332     Br2336   1.938       .  S
C2341      C2342   1.403       .  A
C2341      C2346   1.405       .  A
C2342      C2343   1.413       .  A
C2342     Br2354   1.939       .  S
C2343      C2344   1.428       .  A
C2343     Br2358   1.915       .  S
C2344      C2347   1.537       .  S
C2344      C2345   1.439       .  A
C2345      C2346   1.416       .  A
C2345     Br2353   1.933       .  S
C2346     Br2357   1.943       .  S
C2347      C2348   1.631       .  A
C2347      C2352   1.646       .  A
C2348      C2349   1.612       .  A
C2348     Br2359   1.925       .  S
C2349      C2350   1.625       .  A
C2349     Br2355   1.919       .  S
C2350      C2351   1.620       .  A
C2351      C2352   1.612       .  A
C2351     Br2360   1.921       .  S
C2352     Br2356   1.937       .  S
C2361      C2362   1.413       .  A
C2361      C2366   1.417       .  A
C2362      C2363   1.410       .  A
C2362     Br2374   1.921       .  S
C2363      C2364   1.408       .  A
C2363     Br2378   1.931       .  S
C2364      C2367   1.490       .  S
C2364      C2365   1.407       .  A
C2365      C2366   1.411       .  A
C2365     Br2373   1.930       .  S
C2366     Br2377   1.925       .  S
C2367      C2368   1.412       .  A
C2367      C2372   1.408       .  A
C2368      C2369   1.411       .  A
C2368     Br2379   1.928       .  S
C2369      C2370   1.408       .  A
C2369     Br2375   1.926       .  S
C2370      C2371   1.411       .  A
C2371      C2372   1.407       .  A
C2371     Br2380   1.931       .  S
C2372     Br2376   1.929       .  S
C2381      C2382   1.413       .  A
C2381      C2386   1.409       .  A
C2382      C2383   1.406       .  A
C2382     Br2394   1.933       .  S
C2383      C2384   1.408       .  A
C2384      C2387   1.485       .  S
C2384      C2385   1.411       .  A
C2385      C2386   1.410       .  A
C2385     Br2393   1.929       .  S
C2386     Br2397   1.928       .  S
C2387      C2388   1.407       .  A
C2387      C2392   1.408       .  A
C2388      C2389   1.407   1_655  A
C2388     Br2399   1.931   1_655  S
C2389     Br2395   1.926       .  S
C2390      C2391   1.411       .  A
C2391     Br2400   1.922       .  S
C2392     Br2396   1.930       .  S
C2401      C2402   1.412       .  A
C2401      C2406   1.409       .  A
C2402      C2403   1.404       .  A
C2402     Br2414   1.933       .  S
C2403      C2404   1.407       .  A
C2403     Br2418   1.930       .  S
C2404      C2407   1.482       .  S
C2404      C2405   1.411       .  A
C2405      C2406   1.409       .  A
C2405     Br2413   1.929       .  S
C2406     Br2417   1.928       .  S
C2407      C2408   1.408       .  A
C2407      C2412   1.405       .  A
C2408      C2409   1.408       .  A
C2408     Br2419   1.930       .  S
C2409      C2410   1.412       .  A
C2409     Br2415   1.921       .  S
C2410      C2411   1.415       .  A
C2411      C2412   1.406       .  A
C2411     Br2420   1.924       .  S
C2412     Br2416   1.932       .  S
C2421      C2426   1.416   1_455  A
C2422      C2423   1.409       .  A
C2422     Br2434   1.923       .  S
C2423     Br2438   1.928       .  S
C2424      C2427   1.484       .  S
C2424      C2425   1.406       .  A
C2425      C2426   1.406       .  A
C2425     Br2433   1.933       .  S
C2426     Br2437   1.923       .  S
C2427      C2428   1.408       .  A
C2427      C2432   1.410       .  A
C2428      C2429   1.406       .  A
C2428     Br2439   1.929       .  S
C2429      C2430   1.412       .  A
C2429     Br2435   1.932       .  S
C2430      C2431   1.408       .  A
C2431      C2432   1.409       .  A
C2431     Br2440   1.925       .  S
C2432     Br2436   1.930       .  S
C2441      C2446   1.417       .  A
C2442      C2443   1.408       .  A
C2442     Br2454   1.925       .  S
C2443      C2444   1.409       .  A
C2443     Br2458   1.929       .  S
C2444      C2447   1.492       .  S
C2445      C2446   1.414       .  A
C2445     Br2453   1.928       .  S
C2446     Br2457   1.931       .  S
C2447      C2448   1.410       .  A
C2447      C2452   1.410       .  A
C2448      C2449   1.408       .  A
C2448     Br2459   1.929       .  S
C2449      C2450   1.409       .  A
C2449     Br2455   1.930       .  S
C2450      C2451   1.412       .  A
C2451      C2452   1.412       .  A
C2451     Br2460   1.929       .  S
C2461      C2462   1.412       .  A
C2461      C2466   1.409       .  A
C2462      C2463   1.410       .  A
C2462     Br2474   1.930       .  S
C2463      C2464   1.411       .  A
C2463     Br2478   1.931       .  S
C2464      C2467   1.489       .  S
C2464      C2465   1.410       .  A
C2465      C2466   1.407       .  A
C2465     Br2473   1.928       .  S
C2466     Br2477   1.930       .  S
C2467      C2468   1.409       .  A
C2467      C2472   1.411       .  A
C2468      C2469   1.404       .  A
C2468     Br2479   1.931       .  S
C2469      C2470   1.409       .  A
C2469     Br2475   1.924       .  S
C2470      C2471   1.414       .  A
C2471      C2472   1.411       .  A
C2471     Br2480   1.931       .  S
C2472     Br2476   1.929       .  S
C2481      C2482   1.415       .  A
C2481      C2486   1.409       .  A
C2482      C2483   1.415       .  A
C2483      C2484   1.412       .  A
C2483     Br2498   1.929       .  S
C2484      C2487   1.497       .  S
C2484      C2485   1.410       .  A
C2485      C2486   1.408       .  A
C2485     Br2493   1.929       .  S
C2486     Br2497   1.921       .  S
C2487      C2488   1.412       .  A
C2487      C2492   1.411       .  A
C2488      C2489   1.412       .  A
C2488     Br2499   1.929       .  S
C2489      C2490   1.412       .  A
C2489     Br2495   1.930       .  S
C2490      C2491   1.417       .  A
C2491      C2492   1.411       .  A
C2491     Br2500   1.933       .  S
C2501      C2502   1.411       .  A
C2501      C2506   1.415       .  A
C2502      C2503   1.406       .  A
C2502     Br2514   1.923       .  S
C2503      C2504   1.407       .  A
C2503     Br2518   1.930       .  S
C2504      C2507   1.479       .  S
C2504      C2505   1.406       .  A
C2505      C2506   1.405       .  A
C2505     Br2513   1.933       .  S
C2506     Br2517   1.925       .  S
C2507      C2508   1.409       .  A
C2507      C2512   1.407       .  A
C2508      C2509   1.403       .  A
C2508     Br2519   1.923       .  S
C2509      C2510   1.408       .  A
C2509     Br2515   1.933       .  S
C2510      C2511   1.412       .  A
C2511      C2512   1.405       .  A
C2511     Br2520   1.932       .  S
C2512     Br2516   1.931       .  S
C2521      C2522   1.412       .  A
C2521      C2526   1.408       .  A
C2522      C2523   1.407       .  A
C2522     Br2534   1.932       .  S
C2523      C2524   1.408       .  A
C2523     Br2538   1.930       .  S
C2524      C2527   1.491       .  S
C2524      C2525   1.413       .  A
C2525      C2526   1.412       .  A
C2525     Br2533   1.928       .  S
C2526     Br2537   1.928       .  S
C2527      C2528   1.408       .  A
C2528      C2529   1.411       .  A
C2528     Br2539   1.929       .  S
C2529     Br2535   1.932       .  S
C2530      C2531   1.411   1_545  A
C2531      C2532   1.409       .  A
C2531     Br2540   1.924       .  S
C2532     Br2536   1.930       .  S
C2541      C2542   1.409       .  A
C2541      C2546   1.413       .  A
C2542      C2543   1.402       .  A
C2542     Br2554   1.933       .  S
C2543      C2544   1.407       .  A
C2543     Br2558   1.926       .  S
C2544      C2547   1.479       .  S
C2544      C2545   1.409       .  A
C2545      C2546   1.407       .  A
C2545     Br2553   1.930       .  S
C2546     Br2557   1.932       .  S
C2547      C2548   1.405       .  A
C2547      C2552   1.407       .  A
C2548      C2549   1.404       .  A
C2548     Br2559   1.934       .  S
C2549      C2550   1.416       .  A
C2549     Br2555   1.925       .  S
C2550      C2551   1.413       .  A
C2551      C2552   1.408       .  A
C2552     Br2556   1.931       .  S
C2561      C2562   1.416   1_455  A
C2562      C2563   1.403       .  A
C2562     Br2574   1.923       .  S
C2563      C2564   1.404       .  A
C2563     Br2578   1.934       .  S
C2564      C2567   1.480       .  S
C2564      C2565   1.407   1_655  A
C2566     Br2577   1.922       .  S
C2567      C2568   1.408       .  A
C2567      C2572   1.407       .  A
C2568      C2569   1.405       .  A
C2569      C2570   1.413       .  A
C2569     Br2575   1.933       .  S
C2570      C2571   1.416       .  A
C2571      C2572   1.407       .  A
C2571     Br2580   1.933       .  S
C2572     Br2576   1.931       .  S
C2581      C2582   1.414       .  A
C2581      C2586   1.420       .  A
C2582      C2583   1.411       .  A
C2582     Br2594   1.922   1_565  S
C2583      C2584   1.408       .  A
C2583     Br2598   1.931       .  S
C2584      C2587   1.488       .  S
C2584      C2585   1.406       .  A
C2585      C2586   1.409       .  A
C2585     Br2593   1.931       .  S
C2586     Br2597   1.933       .  S
C2587      C2588   1.410       .  A
C2587      C2592   1.408       .  A
C2588      C2589   1.410       .  A
C2588     Br2599   1.929       .  S
C2589      C2590   1.410       .  A
C2589     Br2595   1.928       .  S
C2590      C2591   1.416       .  A
C2591      C2592   1.408       .  A
C2591     Br2600   1.934       .  S
C2592     Br2596   1.931       .  S
C2601      C2602   1.413       .  A
C2601      C2606   1.417       .  A
C2602      C2603   1.408       .  A
C2602     Br2614   1.925       .  S
C2603      C2604   1.407       .  A
C2603     Br2618   1.931       .  S
C2604      C2607   1.478       .  S
C2604      C2605   1.404       .  A
C2605      C2606   1.402       .  A
C2605     Br2613   1.932       .  S
C2606     Br2617   1.936       .  S
C2607      C2608   1.405       .  A
C2607      C2612   1.411       .  A
C2608      C2609   1.404       .  A
C2608     Br2619   1.931       .  S
C2609      C2610   1.413       .  A
C2609     Br2615   1.932       .  S
C2610      C2611   1.407       .  A
C2611      C2612   1.407       .  A
C2611     Br2620   1.929       .  S
C2612     Br2616   1.930       .  S
C2621      C2626   1.415       .  A
C2622      C2623   1.409   1_455  A
C2622     Br2634   1.924       .  S
C2623      C2624   1.406       .  A
C2623     Br2638   1.932   1_655  S
C2624      C2627   1.486       .  S
C2624      C2625   1.407       .  A
C2626     Br2637   1.924       .  S
C2627      C2628   1.409       .  A
C2627      C2632   1.409       .  A
C2628      C2629   1.407       .  A
C2628     Br2639   1.929       .  S
C2629      C2630   1.412       .  A
C2629     Br2635   1.932       .  S
C2630      C2631   1.410       .  A
C2631      C2632   1.407       .  A
C2631     Br2640   1.932   1_655  S
