geometry optimzed in LAMMPS
_audit_creation_date              2020-11-30 
_audit_creation_method            'lammps2cif' 
_symmetry_space_group_name_H-M    'P1' 
_symmetry_Int_Tables_number       1 
_symmetry_cell_setting            triclinic 
loop_ 
_symmetry_equiv_pos_as_xyz 
  x,y,z 
_cell_length_a                    30.79140928269685 
_cell_length_b                    32.32859741392197 
_cell_length_c                    28.876862130277022 
_cell_angle_alpha                 91.11214048293662 
_cell_angle_beta                  90.41924144902076 
_cell_angle_gamma                 89.8174727246161 
loop_ 
_atom_site_label 
_atom_site_type_symbol 
_atom_site_fract_x 
_atom_site_fract_y 
_atom_site_fract_z 
_atom_site_charge 
C1          C  0.24788443  0.25193044  0.74151946    -0.02800
O2          O  0.13406261  0.06461776  0.49723080    -0.75610
O3          O  0.18832284  0.11253796  0.49482437    -0.54510
C4          C  0.14791531  0.10217259  0.49633291     0.78120
O5          O  0.25930222  0.43128851  0.62973778    -0.60210
O6          O  0.25716412  0.38083264  0.57318826    -0.53240
C7          C  0.25818340  0.39342051  0.61586436     0.70140
O8          O  0.26321700  0.06751600  0.62745266    -0.74760
O9          O  0.25354079  0.11295343  0.56940414    -0.55330
C10         C  0.25901452  0.10438990  0.61248219     0.76140
O11         O  0.13407395  0.42564800  0.49597819    -0.59910
O12         O  0.18850201  0.37761935  0.49905505    -0.53030
C13         C  0.14799577  0.38805758  0.49718655     0.72730
Zr14       Zr  0.16572936  0.49500062  0.49629322     2.54710
O15         O  0.11017209  0.49683048  0.55579663    -0.80470
O16         O  0.11412199  0.49099894  0.43214152    -0.93890
Zr17       Zr  0.25718838  0.49826673  0.59430177     2.64680
O18         O  0.19663716  0.00154084  0.64806524    -0.98850
O19         O  0.31151060  0.49845995  0.65594814    -0.80910
O20         O  0.21049266  0.03669731  0.54554908    -0.84260
O21         O  0.21075276  0.45671736  0.54693996    -2.18970
O22         O  0.26465158  0.42349217  0.36739149    -0.67650
O23         O  0.25549539  0.37781120  0.42517546    -0.52220
C24         C  0.26106396  0.38665830  0.38222988     0.71110
O25         O  0.38023646  0.06497757  0.49905348    -0.60560
O26         O  0.32503400  0.11233419  0.49936110    -0.52540
C27         C  0.36567027  0.10247010  0.49948770     0.72920
O28         O  0.38007914  0.42499159  0.49873614    -0.71960
O29         O  0.32524859  0.37748970  0.49841626    -0.50630
C30         C  0.36574760  0.38753028  0.49845629     0.74300
O31         O  0.25821322  0.05837352  0.36487293    -0.67290
O32         O  0.25671381  0.10865621  0.42164444    -0.54480
C33         C  0.25727277  0.09613384  0.37892164     0.72680
Zr34       Zr  0.25821098  0.49205921  0.40116854     2.77540
O35         O  0.31494871  0.99403367  0.34290425    -0.98040
O36         O  0.19856431  0.48861587  0.34544973    -0.78860
Zr37       Zr  0.34912210  0.49506075  0.49896440     2.70070
O38         O  0.40329442  0.49432018  0.43800928    -0.80100
O39         O  0.40198169  0.49571697  0.56207177    -0.99190
Zr40       Zr  0.25677181  0.07446524  0.49629886     2.21500
Zr41       Zr  0.25704450  0.41559159  0.49901229     2.11130
O42         O  0.30406954  0.45349794  0.45031623    -2.47880
O43         O  0.30397407  0.03393538  0.44871413    -0.79900
O44         O  0.21126961  0.45333208  0.44842830    -0.72090
O45         O  0.30345738  0.03665719  0.54639913    -2.33050
O46         O  0.21104368  0.03353806  0.44716424    -2.29260
O47         O  0.30355114  0.45626989  0.54791230    -0.73850
H48         H  0.19293308  0.43952932  0.56603925     0.78140
H49         H  0.32123845  0.05494812  0.56530164     0.79230
H50         H  0.32209840  0.43521352  0.43183366     0.81460
H51         H  0.19333138  0.05070833  0.42753973     0.79060
H52         H  0.33875631  0.00661314  0.64064189     0.42100
H53         H  0.39469724  0.47127153  0.58060614     0.41070
H54         H  0.38990474  0.01044275  0.41280350     0.40750
H55         H  0.33512684  0.47130491  0.35086879     0.38680
H56         H  0.17979346  0.46608449  0.35647217     0.41810
H57         H  0.12291327  0.01317117  0.41102932     0.36600
H58         H  0.12223414  0.01518564  0.58050422     0.42710
H59         H  0.17752147  0.47825296  0.63863820     0.39130
H60         H  0.30061909  0.48460780  0.31377774     0.44050
H61         H  0.08627498  0.50061491  0.44552931     0.42770
H62         H  0.20930610  0.49304333  0.67803710     0.42910
H63         H  0.42987908  0.48840410  0.54711815     0.43260
C64         C  0.48447769  0.24500199  0.49804785     0.00250
C65         C  0.03003105  0.24518769  0.49743174     0.00250
C66         C  0.25460774  0.23979277  0.25557817    -0.02800
C67         C  0.23064445  0.49668721  0.99661250     0.00250
C68         C  0.27623769  0.49687007  0.99758566     0.00250
O69         O  0.06829771  0.24427891  0.86326673    -0.75610
O70         O  0.12232074  0.24823130  0.91797859    -0.54510
C71         C  0.10793167  0.24670801  0.87574013     0.78120
O72         O  0.42948920  0.36184231  0.99593536    -0.60210
O73         O  0.37743392  0.31169792  0.99677181    -0.53240
C74         C  0.38960876  0.34990239  0.99628955     0.70140
O75         O  0.07543365  0.36205126  0.99520105    -0.74760
O76         O  0.12809919  0.31240393  0.99704808    -0.55330
C77         C  0.11552980  0.35060867  0.99711473     0.76140
O78         O  0.42995907  0.24820465  0.86541612    -0.59910
O79         O  0.38025854  0.24104576  0.92243192    -0.53030
C80         C  0.39104851  0.24458067  0.87961502     0.72730
Zr81       Zr  0.00019413  0.24332253  0.90071969     2.54710
O82         O  0.00065382  0.29286725  0.83830075    -0.80470
O83         O  0.49699447  0.18245204  0.84978212    -0.93890
Zr84       Zr  0.00255519  0.33248026  0.99521027     2.64680
O85         O  0.00761166  0.38247539  0.93359427    -0.98850
O86         O  0.49689930  0.38537334  0.05586330    -0.80910
O87         O  0.04419533  0.28848363  0.94629054    -0.84260
O88         O  0.45874423  0.28927541  0.94720565    -2.18970
O89         O  0.43074662  0.12996804  0.99892090    -0.67650
O90         O  0.37855888  0.18035407  0.99813744    -0.52220
C91         C  0.39087641  0.14211700  0.99906872     0.71110
O92         O  0.07903672  0.25224896  0.12418690    -0.60560
O93         O  0.12980718  0.25155962  0.06704106    -0.52540
C94         C  0.11870302  0.25347658  0.11000845     0.72920
O95         O  0.43080571  0.25074106  0.12504138    -0.72000
O96         O  0.37852681  0.25056374  0.06841103    -0.50630
C97         C  0.39084122  0.25108425  0.11100916     0.74300
O98         O  0.07498730  0.12905615  0.99321326    -0.67290
O99         O  0.12717529  0.17933811  0.99452875    -0.54480
C100        C  0.11472319  0.14104567  0.99308309     0.72680
Zr101      Zr  0.00326363  0.15998795  0.99751853     2.77540
O102        O  0.00993240  0.11197201  0.06106600    -0.98040
O103        O  0.00041473  0.10565912  0.93800275    -0.78860
Zr104      Zr  0.00466696  0.24869273  0.09296743     2.70070
O105        O  0.00624980  0.19409179  0.14984069    -0.80100
O106        O  0.00523934  0.30306973  0.15232336    -0.99190
Zr107      Zr  0.08836916  0.24648351  0.99479269     2.21500
Zr108      Zr  0.41804629  0.24615598  0.99674789     2.11130
O109        O  0.46119348  0.20377565  0.04638068    -2.47880
O110        O  0.04706123  0.20400650  0.04509717    -0.79900
O111        O  0.45883530  0.20039919  0.94841853    -0.72090
O112        O  0.04600140  0.29119407  0.04400858    -2.33050
O113        O  0.04485835  0.20131109  0.94754524    -2.29260
O114        O  0.46123489  0.29087394  0.04492652    -0.73850
H115        H  0.44004706  0.30598459  0.92809305     0.78140
H116        H  0.06433471  0.30905708  0.06281662     0.79230
H117        H  0.44304241  0.18729985  0.06593021     0.81460
H118        H  0.06295048  0.18394273  0.92806303     0.79060
H119        H  0.00545337  0.37108457  0.08452721     0.42100
H120        H  0.48264092  0.32284586  0.14231151     0.41070
H121        H  0.03245280  0.17759840  0.14210002     0.40750
H122        H  0.49112297  0.12366168  0.08570781     0.38680
H123        H  0.47645936  0.11397823  0.91706787     0.41810
H124        H  0.01865916  0.16292749  0.86239134     0.36600
H125        H  0.01841711  0.31620117  0.85042500     0.42710
H126        H  0.48928678  0.37096164  0.90821418     0.39130
H127        H  0.99483183  0.08663806  0.04995162     0.44050
H128        H  0.50966432  0.19157737  0.82028369     0.42770
H129        H  0.99162280  0.40710034  0.94529910     0.42910
H130        H  0.99309958  0.29002539  0.18011813     0.43260
C131        C  0.33375639  0.04397232  0.03534321    -0.02160
C132        C  0.30243235  0.03728352  0.99931270     0.07520
C133        C  0.29933233  0.06793219  0.96426581    -0.02270
C134        C  0.32619666  0.10352410  0.96587125    -0.02280
C135        C  0.35753977  0.10881937  0.00118490     0.07650
C136        C  0.36040237  0.07938171  0.03634224    -0.02470
Br137      Br  0.40048620  0.08837713  0.08755093    -0.01020
Br138      Br  0.34100506  0.00603484  0.08561758    -0.01090
Br139      Br  0.32281982  0.14366276  0.91712073    -0.01050
Br140      Br  0.26502101  0.05937946  0.90874592    -0.01040
C141        C  0.16858033  0.45381457  0.03051967    -0.02160
C142        C  0.20342337  0.45683866  0.99830568     0.07520
C143        C  0.21015702  0.42206154  0.96789837    -0.02270
C144        C  0.18602091  0.38518412  0.97303192    -0.02280
C145        C  0.14839162  0.38488629  0.00054269     0.07650
C146        C  0.14019636  0.41962366  0.02954148    -0.02470
Br147      Br  0.09146174  0.41962515  0.07163908    -0.01020
Br148      Br  0.15972810  0.49354767  0.08021892    -0.01090
Br149      Br  0.20614748  0.33487767  0.94366237    -0.01050
Br150      Br  0.24577273  0.42521927  0.91338324    -0.01040
C151        C  0.33555393  0.45042031  0.96233580    -0.02160
C152        C  0.30333957  0.45688942  0.99709784     0.07520
C153        C  0.29869108  0.42543194  0.03090707    -0.02270
C154        C  0.32472992  0.38907243  0.02906007    -0.02280
C155        C  0.35639681  0.38363137  0.99446453     0.07650
C156        C  0.36028307  0.41371137  0.96028894    -0.02470
Br157      Br  0.39800663  0.40298951  0.90797086    -0.01020
Br158      Br  0.34623912  0.48974896  0.91443310    -0.01090
Br159      Br  0.31842616  0.34728477  0.07538451    -0.01050
Br160      Br  0.26161445  0.43312131  0.08413071    -0.01040
C161        C  0.17435867  0.04257897  0.95680596    -0.02160
C162        C  0.20428035  0.03677590  0.99412432     0.07520
C163        C  0.20426878  0.06702001  0.03080031    -0.02270
C164        C  0.17291300  0.09903569  0.03123756    -0.02280
C165        C  0.14779841  0.10732521  0.99180913     0.07650
C166        C  0.14855348  0.07870695  0.95454617    -0.02470
Br167      Br  0.11160897  0.08774088  0.90138786    -0.01020
Br168      Br  0.16818727  0.00221030  0.90706086    -0.01090
Br169      Br  0.15459052  0.12300911  0.08926409    -0.01050
Br170      Br  0.24085294  0.06238810  0.08507505    -0.01040
C171        C  0.30220704  0.20880395  0.18609491    -0.02160
C172        C  0.29615651  0.24020196  0.22163069     0.07520
C173        C  0.33013279  0.27139760  0.22302930    -0.02270
C174        C  0.35713163  0.27747551  0.18442092    -0.02280
C175        C  0.35665083  0.24959372  0.14679147     0.07650
C176        C  0.32841399  0.21580082  0.14737388    -0.02470
Br177      Br  0.32722717  0.17678059  0.09576501    -0.01020
Br178      Br  0.28932157  0.15080354  0.19406367    -0.01090
Br179      Br  0.39386170  0.32586485  0.18180593    -0.01050
Br180      Br  0.35177069  0.29950970  0.27884549    -0.01040
C181        C  0.17639836  0.27260862  0.22677225    -0.02160
C182        C  0.21188530  0.24271857  0.22329378     0.07520
C183        C  0.20827080  0.21536397  0.18461175    -0.02270
C184        C  0.18983700  0.22956671  0.14367373    -0.02280
C185        C  0.15344240  0.25549887  0.14657425     0.07650
C186        C  0.14722343  0.27773639  0.18866501    -0.02470
Br187      Br  0.10224873  0.31962537  0.19165332    -0.01020
Br188      Br  0.15995316  0.30313624  0.28303596    -0.01090
Br189      Br  0.21375342  0.21032576  0.08597717    -0.01050
Br190      Br  0.18609684  0.16104236  0.19646866    -0.01040
C191        C  0.25294498  0.35535059  0.30056238    -0.02160
C192        C  0.26378002  0.35167919  0.34799563     0.07520
C193        C  0.27634341  0.31293214  0.36385847    -0.02270
C194        C  0.26521798  0.27711122  0.33873822    -0.02280
C195        C  0.25687907  0.27888395  0.28934401     0.07650
C196        C  0.25477564  0.32016065  0.27057303    -0.02470
Br197      Br  0.25271858  0.33117775  0.20431208    -0.01020
Br198      Br  0.23356711  0.40746294  0.27550660    -0.01090
Br199      Br  0.25829672  0.23173592  0.38053548    -0.01050
Br200      Br  0.31424714  0.30857148  0.41767680    -0.01040
C201        C  0.21460389  0.18126257  0.30354614    -0.02160
C202        C  0.25412590  0.19808471  0.28404601     0.07520
C203        C  0.29387717  0.17643589  0.29642463    -0.02270
C204        C  0.29267892  0.13877583  0.31994299    -0.02280
C205        C  0.25524286  0.12745887  0.34294532     0.07650
C206        C  0.21619050  0.14751029  0.33388562    -0.02470
Br207      Br  0.16496691  0.12857429  0.36584098    -0.01020
Br208      Br  0.15729030  0.20497015  0.29932082    -0.01090
Br209      Br  0.34287965  0.10238250  0.32214260    -0.01050
Br210      Br  0.35232191  0.19709880  0.29046565    -0.01040
C211        C  0.43049189  0.34948057  0.46497036    -0.02160
C212        C  0.39809156  0.35318731  0.49902888     0.07520
C213        C  0.39546940  0.32310276  0.53324802    -0.02270
C214        C  0.42468509  0.28962459  0.53399383    -0.02280
C215        C  0.45725196  0.28465912  0.49939142     0.07650
C216        C  0.45955497  0.31537129  0.46454570    -0.02470
Br217      Br  0.49699973  0.30903756  0.41146022    -0.01020
Br218      Br  0.43218967  0.38931494  0.41596119    -0.01090
Br219      Br  0.42012250  0.25289232  0.58571769    -0.01050
Br220      Br  0.35194354  0.32826346  0.58061675    -0.01040
C221        C  0.05261935  0.17288880  0.46522015    -0.02160
C222        C  0.05708715  0.20554133  0.49882296     0.07520
C223        C  0.09085669  0.20191397  0.53259082    -0.02270
C224        C  0.11965535  0.16803168  0.53180394    -0.02280
C225        C  0.11518227  0.13622041  0.49826141     0.07650
C226        C  0.08016695  0.13780166  0.46651178    -0.02470
Br227      Br  0.07038467  0.09248804  0.42320405    -0.01020
Br228      Br  0.01474874  0.17774255  0.41197602    -0.01090
Br229      Br  0.16385224  0.16392282  0.57943579    -0.01050
Br230      Br  0.09774666  0.24145403  0.58293363    -0.01040
C231        C  0.11924783  0.32202377  0.46220533    -0.02160
C232        C  0.11516356  0.35413112  0.49540606     0.07520
C233        C  0.08033619  0.35307643  0.52690498    -0.02270
C234        C  0.05308080  0.31793554  0.52881390    -0.02280
C235        C  0.05697996  0.28494635  0.49547077     0.07650
C236        C  0.09027401  0.28833818  0.46150938    -0.02470
Br237      Br  0.09653282  0.24874730  0.41105955    -0.01020
Br238      Br  0.16322768  0.32563770  0.41490083    -0.01090
Br239      Br  0.01681205  0.31354420  0.58277034    -0.01050
Br240      Br  0.07033481  0.39937616  0.56891241    -0.01040
C241        C  0.43197812  0.14004353  0.53156791    -0.02160
C242        C  0.39779882  0.13705408  0.49886822     0.07520
C243        C  0.39344386  0.16800604  0.46567350    -0.02270
C244        C  0.42330696  0.20072991  0.46369412    -0.02280
C245        C  0.45738195  0.20521972  0.49716267     0.07650
C246        C  0.46093338  0.17417593  0.53163941    -0.02470
Br247      Br  0.50004070  0.18006235  0.58392675    -0.01020
Br248      Br  0.43624159  0.09937796  0.57960382    -0.01090
Br249      Br  0.41736445  0.23704879  0.41164572    -0.01050
Br250      Br  0.34602593  0.16587455  0.42184080    -0.01040
C251        C  0.28056102  0.25406843  0.82768686    -0.02160
C252        C  0.28608668  0.24723794  0.77840678     0.07520
C253        C  0.32960139  0.23582068  0.76483256    -0.02270
C254        C  0.36218031  0.22967973  0.79871374    -0.02280
C255        C  0.35630081  0.24551755  0.84417791     0.07650
C256        C  0.31625919  0.26280168  0.85564836    -0.02470
Br257      Br  0.30836779  0.29763363  0.91005071    -0.01020
Br258      Br  0.23624501  0.23118845  0.86672250    -0.01090
Br259      Br  0.41420269  0.19958487  0.78156936    -0.01050
Br260      Br  0.35016112  0.23498932  0.70174708    -0.01040
C261        C  0.14384121  0.21624896  0.80631126    -0.02160
C262        C  0.13824497  0.24951151  0.83744872     0.07520
C263        C  0.15658465  0.28759028  0.82769363    -0.02270
C264        C  0.19180654  0.28921609  0.79722404    -0.02280
C265        C  0.20343835  0.25328048  0.76890724     0.07650
C266        C  0.17234929  0.21986405  0.76882535    -0.02470
Br267      Br  0.15714946  0.18446583  0.71586870    -0.01020
Br268      Br  0.11111219  0.16605116  0.81421785    -0.01090
Br269      Br  0.22415204  0.34026240  0.80251142    -0.01050
Br270      Br  0.13169587  0.33730824  0.85530709    -0.01040
C271        C  0.21557471  0.34181267  0.65744611    -0.02160
C272        C  0.25485098  0.36225732  0.65205381     0.07520
C273        C  0.28902511  0.35514408  0.68300118    -0.02270
C274        C  0.28612883  0.32335179  0.71586575    -0.02280
C275        C  0.24977124  0.29461099  0.71456747     0.07650
C276        C  0.21255311  0.30815521  0.68747514    -0.02470
Br277      Br  0.15709951  0.28077984  0.68375949    -0.01020
Br278      Br  0.16616895  0.35951029  0.62078568    -0.01090
Br279      Br  0.32860652  0.32972721  0.76553983    -0.01050
Br280      Br  0.33950319  0.39090528  0.68078196    -0.01040
C281        C  0.25306610  0.17092159  0.72423485    -0.02160
C282        C  0.25244485  0.21261652  0.70659526     0.07520
C283        C  0.26183209  0.21475944  0.65723668    -0.02270
C284        C  0.27251630  0.17882170  0.63126595    -0.02280
C285        C  0.26078537  0.13979558  0.64665276     0.07650
C286        C  0.25100679  0.13589835  0.69393809    -0.02470
Br287      Br  0.23207395  0.08341782  0.71827140    -0.01020
Br288      Br  0.25388769  0.15778744  0.78914826    -0.01090
Br289      Br  0.31029027  0.18245853  0.57753762    -0.01050
Br290      Br  0.26702582  0.26270085  0.61894457    -0.01040
C291        C  0.24788445  0.75193042  0.74151945    -0.02800
O292        O  0.13406260  0.56461777  0.49723080    -0.75610
O293        O  0.18832284  0.61253796  0.49482436    -0.54510
C294        C  0.14791530  0.60217260  0.49633290     0.78120
O295        O  0.25930222  0.93128852  0.62973781    -0.60210
O296        O  0.25716411  0.88083264  0.57318829    -0.53240
C297        C  0.25818339  0.89342051  0.61586439     0.70140
O298        O  0.26321703  0.56751600  0.62745263    -0.74760
O299        O  0.25354080  0.61295343  0.56940411    -0.55330
C300        C  0.25901453  0.60438990  0.61248217     0.76140
O301        O  0.13407395  0.92564800  0.49597821    -0.59910
O302        O  0.18850200  0.87761935  0.49905508    -0.53030
C303        C  0.14799577  0.88805758  0.49718657     0.72730
Zr304      Zr  0.16572937  0.99500062  0.49629324     2.54710
O305        O  0.11017208  0.99683048  0.55579664    -0.80470
O306        O  0.11412200  0.99099893  0.43214153    -0.93890
Zr307      Zr  0.25718838  0.99826673  0.59430180     2.64680
O308        O  0.19663716  0.50154085  0.64806521    -0.98850
O309        O  0.31151060  0.99845996  0.65594817    -0.80910
O310        O  0.21049267  0.53669732  0.54554906    -0.84260
O311        O  0.21075276  0.95671736  0.54693998    -2.18970
O312        O  0.26465159  0.92349217  0.36739152    -0.67650
O313        O  0.25549539  0.87781120  0.42517549    -0.52220
C314        C  0.26106396  0.88665831  0.38222990     0.71110
O315        O  0.38023646  0.56497756  0.49905345    -0.60560
O316        O  0.32503400  0.61233419  0.49936106    -0.52540
C317        C  0.36567026  0.60247010  0.49948767     0.72920
O318        O  0.38007914  0.92499159  0.49873618    -0.71960
O319        O  0.32524860  0.87748970  0.49841629    -0.50630
C320        C  0.36574761  0.88753028  0.49845633     0.74300
O321        O  0.25821320  0.55837351  0.36487290    -0.67290
O322        O  0.25671379  0.60865621  0.42164441    -0.54480
C323        C  0.25727274  0.59613383  0.37892161     0.72680
Zr324      Zr  0.25821099  0.99205922  0.40116857     2.77540
O325        O  0.31494869  0.49403367  0.34290422    -0.98040
O326        O  0.19856433  0.98861588  0.34544976    -0.78860
Zr327      Zr  0.34912210  0.99506075  0.49896444     2.70070
O328        O  0.40329443  0.99432018  0.43800933    -0.80100
O329        O  0.40198168  0.99571697  0.56207182    -0.99190
Zr330      Zr  0.25677180  0.57446524  0.49629883     2.21500
Zr331      Zr  0.25704450  0.91559159  0.49901232     2.11130
O332        O  0.30406955  0.95349794  0.45031626    -2.47880
O333        O  0.30397406  0.53393538  0.44871409    -0.79900
O334        O  0.21126962  0.95333208  0.44842833    -0.72090
O335        O  0.30345738  0.53665718  0.54639910    -2.33050
O336        O  0.21104367  0.53353807  0.44716422    -2.29260
O337        O  0.30355114  0.95626989  0.54791233    -0.73850
H338        H  0.19293308  0.93952932  0.56603927     0.78140
H339        H  0.32123845  0.55494812  0.56530161     0.79230
H340        H  0.32209841  0.93521352  0.43183370     0.81460
H341        H  0.19333137  0.55070833  0.42753971     0.79060
H342        H  0.33875632  0.50661311  0.64064186     0.42100
H343        H  0.39469723  0.97127153  0.58060619     0.41070
H344        H  0.38990472  0.51044276  0.41280346     0.40750
H345        H  0.33512686  0.97130491  0.35086883     0.38680
H346        H  0.17979348  0.96608449  0.35647219     0.41810
H347        H  0.12291326  0.51317118  0.41102930     0.36600
H348        H  0.12223413  0.51518565  0.58050420     0.42710
H349        H  0.17752147  0.97825295  0.63863824     0.39130
H350        H  0.30061911  0.98460780  0.31377778     0.44050
H351        H  0.08627499  0.00061491  0.44552932     0.42770
H352        H  0.20930610  0.99304333  0.67803713     0.42910
H353        H  0.42987908  0.98840411  0.54711821     0.43260
C354        C  0.48447769  0.74500198  0.49804788     0.00250
C355        C  0.03003103  0.74518769  0.49743174     0.00250
C356        C  0.25460772  0.73979280  0.25557817    -0.02800
C357        C  0.23064446  0.99668722  0.99661248     0.00250
C358        C  0.27623770  0.99687007  0.99758564     0.00250
O359        O  0.06829773  0.74427892  0.86326673    -0.75610
O360        O  0.12232076  0.74823130  0.91797859    -0.54510
C361        C  0.10793169  0.74670802  0.87574013     0.78120
O362        O  0.42948918  0.86184231  0.99593534    -0.60210
O363        O  0.37743391  0.81169791  0.99677181    -0.53240
C364        C  0.38960875  0.84990238  0.99628954     0.70140
O365        O  0.07543365  0.86205127  0.99520104    -0.74760
O366        O  0.12809919  0.81240394  0.99704808    -0.55330
C367        C  0.11552980  0.85060868  0.99711472     0.76140
O368        O  0.42995909  0.74820462  0.86541612    -0.59910
O369        O  0.38025855  0.74104575  0.92243191    -0.53030
C370        C  0.39104853  0.74458065  0.87961502     0.72730
Zr371      Zr  0.00019415  0.74332254  0.90071969     2.54710
O372        O  0.00065384  0.79286728  0.83830076    -0.80470
O373        O  0.49699448  0.68245201  0.84978215    -0.93890
Zr374      Zr  0.00255518  0.83248027  0.99521027     2.64680
O375        O  0.00761164  0.88247543  0.93359430    -0.98850
O376        O  0.49689928  0.88537330  0.05586334    -0.80910
O377        O  0.04419533  0.78848365  0.94629055    -0.84260
O378        O  0.45874423  0.78927539  0.94720565    -2.18970
O379        O  0.43074662  0.62996803  0.99892092    -0.67650
O380        O  0.37855888  0.68035406  0.99813744    -0.52220
C381        C  0.39087641  0.64211699  0.99906874     0.71110
O382        O  0.07903671  0.75224897  0.12418691    -0.60560
O383        O  0.12980718  0.75155963  0.06704107    -0.52540
C384        C  0.11870301  0.75347660  0.11000845     0.72920
O385        O  0.43080568  0.75074108  0.12504138    -0.72000
O386        O  0.37852679  0.75056374  0.06841102    -0.50630
C387        C  0.39084120  0.75108426  0.11100915     0.74300
O388        O  0.07498731  0.62905615  0.99321327    -0.67290
O389        O  0.12717529  0.67933811  0.99452876    -0.54480
C390        C  0.11472320  0.64104567  0.99308310     0.72680
Zr391      Zr  0.00326364  0.65998796  0.99751852     2.77540
O392        O  0.00993240  0.61197201  0.06106599    -0.98040
O393        O  0.00041474  0.60565913  0.93800273    -0.78860
Zr394      Zr  0.00466696  0.74869273  0.09296742     2.70070
O395        O  0.00624980  0.69409179  0.14984068    -0.80100
O396        O  0.00523933  0.80306973  0.15232335    -0.99190
Zr397      Zr  0.08836916  0.74648351  0.99479269     2.21500
Zr398      Zr  0.41804628  0.74615597  0.99674789     2.11130
O399        O  0.46119346  0.70377565  0.04638070    -2.47880
O400        O  0.04706123  0.70400650  0.04509716    -0.79900
O401        O  0.45883531  0.70039918  0.94841855    -0.72090
O402        O  0.04600139  0.79119407  0.04400858    -2.33050
O403        O  0.04485836  0.70131110  0.94754523    -2.29260
O404        O  0.46123487  0.79087394  0.04492652    -0.73850
H405        H  0.44004707  0.80598457  0.92809304     0.78140
H406        H  0.06433471  0.80905708  0.06281662     0.79230
H407        H  0.44304240  0.68729986  0.06593023     0.81460
H408        H  0.06295049  0.68394273  0.92806303     0.79060
H409        H  0.00545342  0.87108455  0.08452723     0.42100
H410        H  0.48264090  0.82284586  0.14231154     0.41070
H411        H  0.03245280  0.67759840  0.14210001     0.40750
H412        H  0.49112295  0.62366167  0.08570784     0.38680
H413        H  0.47645937  0.61397821  0.91706791     0.41810
H414        H  0.01865917  0.66292751  0.86239132     0.36600
H415        H  0.01841713  0.81620120  0.85042501     0.42710
H416        H  0.48928677  0.87096166  0.90821420     0.39130
H417        H  0.99483182  0.58663806  0.04995160     0.44050
H418        H  0.50966433  0.69157734  0.82028371     0.42770
H419        H  0.99162277  0.90710036  0.94529913     0.42910
H420        H  0.99309958  0.79002539  0.18011812     0.43260
C421        C  0.33375638  0.54397232  0.03534323    -0.02160
C422        C  0.30243234  0.53728352  0.99931272     0.07520
C423        C  0.29933232  0.56793219  0.96426583    -0.02270
C424        C  0.32619666  0.60352410  0.96587127    -0.02280
C425        C  0.35753976  0.60881936  0.00118492     0.07650
C426        C  0.36040237  0.57938171  0.03634226    -0.02470
Br427      Br  0.40048619  0.58837714  0.08755095    -0.01020
Br428      Br  0.34100505  0.50603484  0.08561760    -0.01090
Br429      Br  0.32281982  0.64366275  0.91712074    -0.01050
Br430      Br  0.26502100  0.55937946  0.90874594    -0.01040
C431        C  0.16858033  0.95381457  0.03051965    -0.02160
C432        C  0.20342337  0.95683866  0.99830567     0.07520
C433        C  0.21015702  0.92206154  0.96789836    -0.02270
C434        C  0.18602091  0.88518412  0.97303192    -0.02280
C435        C  0.14839162  0.88488630  0.00054267     0.07650
C436        C  0.14019635  0.91962368  0.02954146    -0.02470
Br437      Br  0.09146173  0.91962518  0.07163904    -0.01020
Br438      Br  0.15972811  0.99354768  0.08021890    -0.01090
Br439      Br  0.20614748  0.83487767  0.94366237    -0.01050
Br440      Br  0.24577273  0.92521926  0.91338323    -0.01040
C441        C  0.33555392  0.95042030  0.96233578    -0.02160
C442        C  0.30333957  0.95688942  0.99709782     0.07520
C443        C  0.29869108  0.92543194  0.03090706    -0.02270
C444        C  0.32472992  0.88907243  0.02906006    -0.02280
C445        C  0.35639679  0.88363136  0.99446452     0.07650
C446        C  0.36028306  0.91371135  0.96028891    -0.02470
Br447      Br  0.39800659  0.90298948  0.90797082    -0.01020
Br448      Br  0.34623912  0.98974895  0.91443308    -0.01090
Br449      Br  0.31842617  0.84728478  0.07538452    -0.01050
Br450      Br  0.26161445  0.93312132  0.08413070    -0.01040
C451        C  0.17435866  0.54257897  0.95680598    -0.02160
C452        C  0.20428035  0.53677590  0.99412434     0.07520
C453        C  0.20426877  0.56702001  0.03080033    -0.02270
C454        C  0.17291300  0.59903569  0.03123758    -0.02280
C455        C  0.14779841  0.60732521  0.99180915     0.07650
C456        C  0.14855347  0.57870695  0.95454619    -0.02470
Br457      Br  0.11160897  0.58774088  0.90138788    -0.01020
Br458      Br  0.16818726  0.50221030  0.90706088    -0.01090
Br459      Br  0.15459052  0.62300911  0.08926411    -0.01050
Br460      Br  0.24085293  0.56238809  0.08507508    -0.01040
C461        C  0.30220699  0.70880397  0.18609489    -0.02160
C462        C  0.29615647  0.74020197  0.22163068     0.07520
C463        C  0.33013277  0.77139760  0.22302929    -0.02270
C464        C  0.35713160  0.77747551  0.18442092    -0.02280
C465        C  0.35665080  0.74959373  0.14679146     0.07650
C466        C  0.32841395  0.71580083  0.14737387    -0.02470
Br467      Br  0.32722716  0.67678060  0.09576500    -0.01020
Br468      Br  0.28932142  0.65080358  0.19406360    -0.01090
Br469      Br  0.39386167  0.82586486  0.18180593    -0.01050
Br470      Br  0.35177069  0.79950967  0.27884550    -0.01040
C471        C  0.17639833  0.77260866  0.22677226    -0.02160
C472        C  0.21188527  0.74271860  0.22329380     0.07520
C473        C  0.20827074  0.71536398  0.18461179    -0.02270
C474        C  0.18983697  0.72956672  0.14367376    -0.02280
C475        C  0.15344238  0.75549889  0.14657426     0.07650
C476        C  0.14722341  0.77773643  0.18866501    -0.02470
Br477      Br  0.10224872  0.81962542  0.19165329    -0.01020
Br478      Br  0.15995315  0.80313633  0.28303593    -0.01090
Br479      Br  0.21375341  0.71032576  0.08597722    -0.01050
Br480      Br  0.18609667  0.66104241  0.19646876    -0.01040
C481        C  0.25294499  0.85535061  0.30056240    -0.02160
C482        C  0.26378003  0.85167920  0.34799565     0.07520
C483        C  0.27634342  0.81293215  0.36385849    -0.02270
C484        C  0.26521799  0.77711123  0.33873823    -0.02280
C485        C  0.25687906  0.77888397  0.28934403     0.07650
C486        C  0.25477564  0.82016067  0.27057305    -0.02470
Br487      Br  0.25271857  0.83117777  0.20431209    -0.01020
Br488      Br  0.23356713  0.90746296  0.27550662    -0.01090
Br489      Br  0.25829682  0.73173590  0.38053547    -0.01050
Br490      Br  0.31424716  0.80857150  0.41767681    -0.01040
C491        C  0.21460388  0.68126261  0.30354617    -0.02160
C492        C  0.25412588  0.69808473  0.28404601     0.07520
C493        C  0.29387714  0.67643587  0.29642458    -0.02270
C494        C  0.29267888  0.63877582  0.31994293    -0.02280
C495        C  0.25524283  0.62745887  0.34294529     0.07650
C496        C  0.21619048  0.64751032  0.33388563    -0.02470
Br497      Br  0.16496690  0.62857432  0.36584100    -0.01020
Br498      Br  0.15729032  0.70497028  0.29932095    -0.01090
Br499      Br  0.34287959  0.60238246  0.32214250    -0.01050
Br500      Br  0.35232190  0.69709875  0.29046555    -0.01040
C501        C  0.43049190  0.84948057  0.46497041    -0.02160
C502        C  0.39809157  0.85318730  0.49902892     0.07520
C503        C  0.39546940  0.82310275  0.53324805    -0.02270
C504        C  0.42468509  0.78962458  0.53399385    -0.02280
C505        C  0.45725197  0.78465912  0.49939145     0.07650
C506        C  0.45955499  0.81537129  0.46454575    -0.02470
Br507      Br  0.49699976  0.80903757  0.41146027    -0.01020
Br508      Br  0.43218970  0.88931495  0.41596125    -0.01090
Br509      Br  0.42012249  0.75289230  0.58571771    -0.01050
Br510      Br  0.35194352  0.82826344  0.58061676    -0.01040
C511        C  0.05261934  0.67288880  0.46522015    -0.02160
C512        C  0.05708713  0.70554133  0.49882296     0.07520
C513        C  0.09085667  0.70191396  0.53259083    -0.02270
C514        C  0.11965534  0.66803168  0.53180394    -0.02280
C515        C  0.11518226  0.63622041  0.49826141     0.07650
C516        C  0.08016694  0.63780166  0.46651178    -0.02470
Br517      Br  0.07038466  0.59248804  0.42320404    -0.01020
Br518      Br  0.01474876  0.67774257  0.41197599    -0.01090
Br519      Br  0.16385223  0.66392282  0.57943579    -0.01050
Br520      Br  0.09774664  0.74145403  0.58293364    -0.01040
C521        C  0.11924783  0.82202377  0.46220535    -0.02160
C522        C  0.11516355  0.85413112  0.49540609     0.07520
C523        C  0.08033618  0.85307643  0.52690500    -0.02270
C524        C  0.05308078  0.81793554  0.52881391    -0.02280
C525        C  0.05697994  0.78494636  0.49547078     0.07650
C526        C  0.09027400  0.78833819  0.46150939    -0.02470
Br527      Br  0.09653280  0.74874731  0.41105955    -0.01020
Br528      Br  0.16322768  0.82563770  0.41490086    -0.01090
Br529      Br  0.01681202  0.81354420  0.58277035    -0.01050
Br530      Br  0.07033480  0.89937616  0.56891243    -0.01040
C531        C  0.43197810  0.64004352  0.53156791    -0.02160
C532        C  0.39779882  0.63705407  0.49886820     0.07520
C533        C  0.39344388  0.66800603  0.46567347    -0.02270
C534        C  0.42330698  0.70072991  0.46369412    -0.02280
C535        C  0.45738195  0.70521972  0.49716268     0.07650
C536        C  0.46093337  0.67417592  0.53163943    -0.02470
Br537      Br  0.50004067  0.68006234  0.58392677    -0.01020
Br538      Br  0.43624155  0.59937795  0.57960382    -0.01090
Br539      Br  0.41736446  0.73704880  0.41164573    -0.01050
Br540      Br  0.34602600  0.66587450  0.42184072    -0.01040
C541        C  0.28056104  0.75406841  0.82768685    -0.02160
C542        C  0.28608670  0.74723792  0.77840678     0.07520
C543        C  0.32960141  0.73582066  0.76483256    -0.02270
C544        C  0.36218033  0.72967971  0.79871373    -0.02280
C545        C  0.35630083  0.74551754  0.84417790     0.07650
C546        C  0.31625921  0.76280167  0.85564835    -0.02470
Br547      Br  0.30836781  0.79763364  0.91005069    -0.01020
Br548      Br  0.23624504  0.73118843  0.86672250    -0.01090
Br549      Br  0.41420271  0.69958486  0.78156935    -0.01050
Br550      Br  0.35016114  0.73498929  0.70174708    -0.01040
C551        C  0.14384123  0.71624895  0.80631128    -0.02160
C552        C  0.13824499  0.74951150  0.83744873     0.07520
C553        C  0.15658468  0.78759027  0.82769363    -0.02270
C554        C  0.19180656  0.78921607  0.79722404    -0.02280
C555        C  0.20343837  0.75328047  0.76890724     0.07650
C556        C  0.17234931  0.71986403  0.76882536    -0.02470
Br557      Br  0.15714949  0.68446578  0.71586873    -0.01020
Br558      Br  0.11111222  0.66605115  0.81421788    -0.01090
Br559      Br  0.22415206  0.84026239  0.80251141    -0.01050
Br560      Br  0.13169589  0.83730823  0.85530708    -0.01040
C561        C  0.21557471  0.84181267  0.65744614    -0.02160
C562        C  0.25485098  0.86225732  0.65205383     0.07520
C563        C  0.28902512  0.85514407  0.68300118    -0.02270
C564        C  0.28612885  0.82335177  0.71586575    -0.02280
C565        C  0.24977126  0.79461097  0.71456746     0.07650
C566        C  0.21255312  0.80815520  0.68747515    -0.02470
Br567      Br  0.15709955  0.78077978  0.68375946    -0.01020
Br568      Br  0.16616893  0.85951032  0.62078576    -0.01090
Br569      Br  0.32860655  0.82972719  0.76553982    -0.01050
Br570      Br  0.33950321  0.89090527  0.68078195    -0.01040
C571        C  0.25306614  0.67092157  0.72423483    -0.02160
C572        C  0.25244487  0.71261650  0.70659525     0.07520
C573        C  0.26183210  0.71475943  0.65723667    -0.02270
C574        C  0.27251631  0.67882170  0.63126593    -0.02280
C575        C  0.26078539  0.63979557  0.64665274     0.07650
C576        C  0.25100684  0.63589833  0.69393808    -0.02470
Br577      Br  0.23207405  0.58341779  0.71827140    -0.01020
Br578      Br  0.25388773  0.65778742  0.78914825    -0.01090
Br579      Br  0.31029027  0.68245854  0.57753759    -0.01050
Br580      Br  0.26702580  0.76270085  0.61894456    -0.01040
C581        C  0.74788443  0.25193044  0.74151946    -0.02800
O582        O  0.63406260  0.06461778  0.49723081    -0.75610
O583        O  0.68832284  0.11253797  0.49482437    -0.54510
C584        C  0.64791530  0.10217261  0.49633291     0.78120
O585        O  0.75930223  0.43128851  0.62973777    -0.60210
O586        O  0.75716412  0.38083263  0.57318825    -0.53240
C587        C  0.75818340  0.39342051  0.61586435     0.70140
O588        O  0.76321700  0.06751600  0.62745267    -0.74760
O589        O  0.75354078  0.11295343  0.56940415    -0.55330
C590        C  0.75901451  0.10438990  0.61248220     0.76140
O591        O  0.63407395  0.42564802  0.49597816    -0.59910
O592        O  0.68850200  0.37761936  0.49905503    -0.53030
C593        C  0.64799577  0.38805759  0.49718652     0.72730
Zr594      Zr  0.66572938  0.49500062  0.49629319     2.54710
O595        O  0.61017210  0.49683049  0.55579660    -0.80470
O596        O  0.61412201  0.49099895  0.43214149    -0.93890
Zr597      Zr  0.75718839  0.49826672  0.59430175     2.64680
O598        O  0.69663715  0.00154083  0.64806525    -0.98850
O599        O  0.81151061  0.49845996  0.65594812    -0.80910
O600        O  0.71049265  0.03669732  0.54554910    -0.84260
O601        O  0.71075277  0.45671736  0.54693994    -2.18970
O602        O  0.76465158  0.42349215  0.36739148    -0.67650
O603        O  0.75549539  0.37781118  0.42517546    -0.52220
C604        C  0.76106396  0.38665828  0.38222987     0.71110
O605        O  0.88023645  0.06497758  0.49905347    -0.60560
O606        O  0.82503398  0.11233419  0.49936112    -0.52540
C607        C  0.86567024  0.10247012  0.49948771     0.72920
O608        O  0.88007914  0.42499156  0.49873613    -0.71960
O609        O  0.82524859  0.37748967  0.49841625    -0.50630
C610        C  0.86574760  0.38753026  0.49845629     0.74300
O611        O  0.75821323  0.05837353  0.36487295    -0.67290
O612        O  0.75671382  0.10865622  0.42164446    -0.54480
C613        C  0.75727278  0.09613385  0.37892166     0.72680
Zr614      Zr  0.75821100  0.49205920  0.40116852     2.77540
O615        O  0.81494869  0.99403369  0.34290426    -0.98040
O616        O  0.69856434  0.48861584  0.34544971    -0.78860
Zr617      Zr  0.84912211  0.49506073  0.49896439     2.70070
O618        O  0.90329442  0.49432015  0.43800927    -0.80100
O619        O  0.90198170  0.49571693  0.56207177    -0.99190
Zr620      Zr  0.75677180  0.07446524  0.49629887     2.21500
Zr621      Zr  0.75704450  0.41559158  0.49901228     2.11130
O622        O  0.80406955  0.45349792  0.45031621    -2.47880
O623        O  0.80397406  0.03393539  0.44871414    -0.79900
O624        O  0.71126963  0.45333208  0.44842829    -0.72090
O625        O  0.80345737  0.03665719  0.54639914    -2.33050
O626        O  0.71104367  0.03353808  0.44716425    -2.29260
O627        O  0.80355114  0.45626987  0.54791229    -0.73850
H628        H  0.69293308  0.43952932  0.56603923     0.78140
H629        H  0.82123844  0.05494812  0.56530165     0.79230
H630        H  0.82209841  0.43521350  0.43183365     0.81460
H631        H  0.69333137  0.05070835  0.42753974     0.79060
H632        H  0.83875631  0.00661314  0.64064190     0.42100
H633        H  0.89469723  0.47127149  0.58060614     0.41070
H634        H  0.88990473  0.01044273  0.41280350     0.40750
H635        H  0.83512687  0.47130487  0.35086879     0.38680
H636        H  0.67979347  0.46608448  0.35647217     0.41810
H637        H  0.62291327  0.01317118  0.41102932     0.36600
H638        H  0.62223412  0.01518562  0.58050424     0.42710
H639        H  0.67752148  0.47825296  0.63863818     0.39130
H640        H  0.80061913  0.48460778  0.31377774     0.44050
H641        H  0.58627501  0.50061492  0.44552928     0.42770
H642        H  0.70930610  0.49304333  0.67803708     0.42910
H643        H  0.92987909  0.48840406  0.54711815     0.43260
C644        C  0.98447770  0.24500198  0.49804787     0.00250
C645        C  0.53003104  0.24518771  0.49743172     0.00250
C646        C  0.75460775  0.23979276  0.25557816    -0.02800
C647        C  0.73064446  0.49668722  0.99661250     0.00250
C648        C  0.77623770  0.49687007  0.99758565     0.00250
O649        O  0.56829771  0.24427892  0.86326672    -0.75610
O650        O  0.62232074  0.24823131  0.91797858    -0.54510
C651        C  0.60793167  0.24670802  0.87574012     0.78120
O652        O  0.92948919  0.36184231  0.99593535    -0.60210
O653        O  0.87743392  0.31169791  0.99677181    -0.53240
C654        C  0.88960876  0.34990239  0.99628954     0.70140
O655        O  0.57543366  0.36205126  0.99520104    -0.74760
O656        O  0.62809919  0.31240393  0.99704807    -0.55330
C657        C  0.61552980  0.35060868  0.99711472     0.76140
O658        O  0.92995907  0.24820464  0.86541612    -0.59910
O659        O  0.88025854  0.24104576  0.92243192    -0.53030
C660        C  0.89104851  0.24458066  0.87961502     0.72730
Zr661      Zr  0.50019413  0.24332254  0.90071968     2.54710
O662        O  0.50065382  0.29286727  0.83830075    -0.80470
O663        O  0.99699447  0.18245203  0.84978214    -0.93890
Zr664      Zr  0.50255519  0.33248027  0.99521027     2.64680
O665        O  0.50761166  0.38247540  0.93359427    -0.98850
O666        O  0.99689930  0.38537334  0.05586330    -0.80910
O667        O  0.54419533  0.28848364  0.94629054    -0.84260
O668        O  0.95874423  0.28927540  0.94720565    -2.18970
O669        O  0.93074662  0.12996804  0.99892091    -0.67650
O670        O  0.87855888  0.18035406  0.99813745    -0.52220
C671        C  0.89087641  0.14211700  0.99906874     0.71110
O672        O  0.57903673  0.25224894  0.12418689    -0.60560
O673        O  0.62980719  0.25155962  0.06704105    -0.52540
C674        C  0.61870303  0.25347657  0.11000843     0.72920
O675        O  0.93080570  0.25074108  0.12504138    -0.72000
O676        O  0.87852681  0.25056375  0.06841103    -0.50630
C677        C  0.89084122  0.25108427  0.11100916     0.74300
O678        O  0.57498730  0.12905615  0.99321322    -0.67290
O679        O  0.62717529  0.17933811  0.99452872    -0.54480
C680        C  0.61472319  0.14104567  0.99308305     0.72680
Zr681      Zr  0.50326363  0.15998795  0.99751852     2.77540
O682        O  0.50993241  0.11197202  0.06106599    -0.98040
O683        O  0.50041472  0.10565913  0.93800273    -0.78860
Zr684      Zr  0.50466697  0.24869273  0.09296742     2.70070
O685        O  0.50624980  0.19409180  0.14984069    -0.80100
O686        O  0.50523935  0.30306973  0.15232334    -0.99190
Zr687      Zr  0.58836916  0.24648351  0.99479268     2.21500
Zr688      Zr  0.91804629  0.24615597  0.99674789     2.11130
O689        O  0.96119348  0.20377565  0.04638069    -2.47880
O690        O  0.54706124  0.20400650  0.04509715    -0.79900
O691        O  0.95883530  0.20039918  0.94841854    -0.72090
O692        O  0.54600140  0.29119407  0.04400858    -2.33050
O693        O  0.54485835  0.20131110  0.94754522    -2.29260
O694        O  0.96123489  0.29087394  0.04492652    -0.73850
H695        H  0.94004706  0.30598458  0.92809305     0.78140
H696        H  0.56433472  0.30905707  0.06281662     0.79230
H697        H  0.94304241  0.18729986  0.06593022     0.81460
H698        H  0.56295048  0.18394274  0.92806301     0.79060
H699        H  0.50545338  0.37108457  0.08452721     0.42100
H700        H  0.98264092  0.32284587  0.14231153     0.41070
H701        H  0.53245279  0.17759840  0.14210002     0.40750
H702        H  0.99112296  0.12366168  0.08570783     0.38680
H703        H  0.97645936  0.11397822  0.91706789     0.41810
H704        H  0.51865915  0.16292751  0.86239132     0.36600
H705        H  0.51841712  0.31620119  0.85042500     0.42710
H706        H  0.98928678  0.37096163  0.90821418     0.39130
H707        H  0.49483184  0.08663806  0.04995160     0.44050
H708        H  0.00966432  0.19157735  0.82028370     0.42770
H709        H  0.49162281  0.40710035  0.94529910     0.42910
H710        H  0.49309959  0.29002540  0.18011811     0.43260
C711        C  0.83375638  0.04397232  0.03534322    -0.02160
C712        C  0.80243234  0.03728352  0.99931271     0.07520
C713        C  0.79933233  0.06793219  0.96426582    -0.02270
C714        C  0.82619666  0.10352410  0.96587127    -0.02280
C715        C  0.85753976  0.10881937  0.00118492     0.07650
C716        C  0.86040236  0.07938171  0.03634225    -0.02470
Br717      Br  0.90048619  0.08837713  0.08755094    -0.01020
Br718      Br  0.84100504  0.00603485  0.08561760    -0.01090
Br719      Br  0.82281982  0.14366276  0.91712074    -0.01050
Br720      Br  0.76502101  0.05937947  0.90874592    -0.01040
C721        C  0.66858034  0.45381457  0.03051966    -0.02160
C722        C  0.70342337  0.45683866  0.99830568     0.07520
C723        C  0.71015702  0.42206155  0.96789837    -0.02270
C724        C  0.68602091  0.38518412  0.97303191    -0.02280
C725        C  0.64839163  0.38488629  0.00054268     0.07650
C726        C  0.64019636  0.41962367  0.02954147    -0.02470
Br727      Br  0.59146174  0.41962516  0.07163907    -0.01020
Br728      Br  0.65972811  0.49354767  0.08021892    -0.01090
Br729      Br  0.70614748  0.33487768  0.94366235    -0.01050
Br730      Br  0.74577272  0.42521928  0.91338323    -0.01040
C731        C  0.83555393  0.45042030  0.96233578    -0.02160
C732        C  0.80333957  0.45688942  0.99709782     0.07520
C733        C  0.79869109  0.42543194  0.03090706    -0.02270
C734        C  0.82472992  0.38907243  0.02906006    -0.02280
C735        C  0.85639681  0.38363136  0.99446452     0.07650
C736        C  0.86028307  0.41371136  0.96028892    -0.02470
Br737      Br  0.89800663  0.40298950  0.90797084    -0.01020
Br738      Br  0.84623912  0.48974895  0.91443308    -0.01090
Br739      Br  0.81842616  0.34728477  0.07538450    -0.01050
Br740      Br  0.76161446  0.43312132  0.08413070    -0.01040
C741        C  0.67435866  0.04257897  0.95680594    -0.02160
C742        C  0.70428035  0.03677590  0.99412431     0.07520
C743        C  0.70426877  0.06702002  0.03080030    -0.02270
C744        C  0.67291299  0.09903569  0.03123753    -0.02280
C745        C  0.64779840  0.10732521  0.99180910     0.07650
C746        C  0.64855348  0.07870695  0.95454614    -0.02470
Br747      Br  0.61160898  0.08774087  0.90138782    -0.01020
Br748      Br  0.66818727  0.00221029  0.90706085    -0.01090
Br749      Br  0.65459047  0.12300910  0.08926406    -0.01050
Br750      Br  0.74085292  0.06238811  0.08507505    -0.01040
C751        C  0.80220711  0.20880393  0.18609496    -0.02160
C752        C  0.79615654  0.24020195  0.22163072     0.07520
C753        C  0.83013279  0.27139763  0.22302930    -0.02270
C754        C  0.85713162  0.27747553  0.18442092    -0.02280
C755        C  0.85665082  0.24959374  0.14679147     0.07650
C756        C  0.82841401  0.21580082  0.14737391    -0.02470
Br757      Br  0.82722717  0.17678059  0.09576504    -0.01020
Br758      Br  0.78932187  0.15080349  0.19406383    -0.01090
Br759      Br  0.89386168  0.32586489  0.18180589    -0.01050
Br760      Br  0.85177064  0.29950981  0.27884546    -0.01040
C761        C  0.67639837  0.27260855  0.22677225    -0.02160
C762        C  0.71188533  0.24271854  0.22329375     0.07520
C763        C  0.70827088  0.21536398  0.18461167    -0.02270
C764        C  0.68983703  0.22956672  0.14367367    -0.02280
C765        C  0.65344242  0.25549885  0.14657423     0.07650
C766        C  0.64722344  0.27773634  0.18866501    -0.02470
Br767      Br  0.60224872  0.31962530  0.19165336    -0.01020
Br768      Br  0.65995313  0.30313608  0.28303600    -0.01090
Br769      Br  0.71375340  0.21032575  0.08597710    -0.01050
Br770      Br  0.68609716  0.16104226  0.19646848    -0.01040
C771        C  0.75294494  0.35535057  0.30056238    -0.02160
C772        C  0.76378001  0.35167917  0.34799562     0.07520
C773        C  0.77634337  0.31293211  0.36385846    -0.02270
C774        C  0.76521790  0.27711121  0.33873822    -0.02280
C775        C  0.75687904  0.27888394  0.28934400     0.07650
C776        C  0.75477559  0.32016064  0.27057303    -0.02470
Br777      Br  0.75271854  0.33117774  0.20431207    -0.01020
Br778      Br  0.73356705  0.40746292  0.27550660    -0.01090
Br779      Br  0.75829637  0.23173596  0.38053549    -0.01050
Br780      Br  0.81424706  0.30857140  0.41767681    -0.01040
C781        C  0.71460389  0.18126248  0.30354604    -0.02160
C782        C  0.75412591  0.19808470  0.28404602     0.07520
C783        C  0.79387720  0.17643596  0.29642476    -0.02270
C784        C  0.79267897  0.13877591  0.31994312    -0.02280
C785        C  0.75524289  0.12745888  0.34294535     0.07650
C786        C  0.71619051  0.14751022  0.33388554    -0.02470
Br787      Br  0.66496689  0.12857412  0.36584080    -0.01020
Br788      Br  0.65729023  0.20496992  0.29932054    -0.01090
Br789      Br  0.84287976  0.10238267  0.32214284    -0.01050
Br790      Br  0.85232191  0.19709898  0.29046588    -0.01040
C791        C  0.93049189  0.34948055  0.46497037    -0.02160
C792        C  0.89809156  0.35318728  0.49902888     0.07520
C793        C  0.89546941  0.32310274  0.53324802    -0.02270
C794        C  0.92468510  0.28962458  0.53399384    -0.02280
C795        C  0.95725198  0.28465911  0.49939144     0.07650
C796        C  0.95955499  0.31537128  0.46454572    -0.02470
Br797      Br  0.99699976  0.30903756  0.41146024    -0.01020
Br798      Br  0.93218968  0.38931491  0.41596119    -0.01090
Br799      Br  0.92012251  0.25289231  0.58571771    -0.01050
Br800      Br  0.85194354  0.32826345  0.58061675    -0.01040
C801        C  0.55261935  0.17288881  0.46522014    -0.02160
C802        C  0.55708715  0.20554135  0.49882294     0.07520
C803        C  0.59085670  0.20191400  0.53259079    -0.02270
C804        C  0.61965537  0.16803172  0.53180391    -0.02280
C805        C  0.61518227  0.13622043  0.49826140     0.07650
C806        C  0.58016694  0.13780167  0.46651178    -0.02470
Br807      Br  0.57038465  0.09248804  0.42320406    -0.01020
Br808      Br  0.51474873  0.17774255  0.41197601    -0.01090
Br809      Br  0.66385229  0.16392290  0.57943572    -0.01050
Br810      Br  0.59774667  0.24145407  0.58293360    -0.01040
C811        C  0.61924782  0.32202379  0.46220529    -0.02160
C812        C  0.61516355  0.35413113  0.49540604     0.07520
C813        C  0.58033618  0.35307645  0.52690496    -0.02270
C814        C  0.55308078  0.31793556  0.52881387    -0.02280
C815        C  0.55697995  0.28494637  0.49547074     0.07650
C816        C  0.59027399  0.28833820  0.46150934    -0.02470
Br817      Br  0.59653279  0.24874732  0.41105951    -0.01020
Br818      Br  0.66322765  0.32563773  0.41490079    -0.01090
Br819      Br  0.51681204  0.31354422  0.58277032    -0.01050
Br820      Br  0.57033482  0.39937617  0.56891240    -0.01040
C821        C  0.93197812  0.14004351  0.53156790    -0.02160
C822        C  0.89779880  0.13705410  0.49886824     0.07520
C823        C  0.89344380  0.16800610  0.46567356    -0.02270
C824        C  0.92330695  0.20072994  0.46369415    -0.02280
C825        C  0.95738196  0.20521972  0.49716268     0.07650
C826        C  0.96093338  0.17417591  0.53163941    -0.02470
Br827      Br  0.00004069  0.18006232  0.58392676    -0.01020
Br828      Br  0.93624162  0.09937791  0.57960377    -0.01090
Br829      Br  0.91736446  0.23704880  0.41164573    -0.01050
Br830      Br  0.84602576  0.16587475  0.42184100    -0.01040
C831        C  0.78056102  0.25406843  0.82768686    -0.02160
C832        C  0.78608669  0.24723794  0.77840678     0.07520
C833        C  0.82960139  0.23582068  0.76483257    -0.02270
C834        C  0.86218031  0.22967972  0.79871374    -0.02280
C835        C  0.85630081  0.24551754  0.84417791     0.07650
C836        C  0.81625919  0.26280168  0.85564837    -0.02470
Br837      Br  0.80836779  0.29763363  0.91005071    -0.01020
Br838      Br  0.73624501  0.23118846  0.86672250    -0.01090
Br839      Br  0.91420269  0.19958486  0.78156936    -0.01050
Br840      Br  0.85016112  0.23498932  0.70174709    -0.01040
C841        C  0.64384121  0.21624897  0.80631126    -0.02160
C842        C  0.63824496  0.24951151  0.83744871     0.07520
C843        C  0.65658465  0.28759029  0.82769362    -0.02270
C844        C  0.69180654  0.28921609  0.79722404    -0.02280
C845        C  0.70343835  0.25328049  0.76890724     0.07650
C846        C  0.67234929  0.21986406  0.76882534    -0.02470
Br847      Br  0.65714946  0.18446583  0.71586869    -0.01020
Br848      Br  0.61111219  0.16605117  0.81421784    -0.01090
Br849      Br  0.72415205  0.34026241  0.80251141    -0.01050
Br850      Br  0.63169587  0.33730824  0.85530708    -0.01040
C851        C  0.71557471  0.34181267  0.65744610    -0.02160
C852        C  0.75485098  0.36225732  0.65205380     0.07520
C853        C  0.78902512  0.35514409  0.68300117    -0.02270
C854        C  0.78612883  0.32335179  0.71586575    -0.02280
C855        C  0.74977124  0.29461099  0.71456746     0.07650
C856        C  0.71255311  0.30815521  0.68747513    -0.02470
Br857      Br  0.65709951  0.28077984  0.68375949    -0.01020
Br858      Br  0.66616895  0.35951027  0.62078566    -0.01090
Br859      Br  0.82860653  0.32972721  0.76553983    -0.01050
Br860      Br  0.83950320  0.39090528  0.68078195    -0.01040
C861        C  0.75306610  0.17092159  0.72423485    -0.02160
C862        C  0.75244485  0.21261652  0.70659526     0.07520
C863        C  0.76183210  0.21475944  0.65723668    -0.02270
C864        C  0.77251631  0.17882170  0.63126596    -0.02280
C865        C  0.76078537  0.13979558  0.64665277     0.07650
C866        C  0.75100679  0.13589835  0.69393810    -0.02470
Br867      Br  0.73207394  0.08341782  0.71827141    -0.01020
Br868      Br  0.75388769  0.15778744  0.78914827    -0.01090
Br869      Br  0.81029028  0.18245852  0.57753764    -0.01050
Br870      Br  0.76702582  0.26270085  0.61894457    -0.01040
C871        C  0.74788444  0.75193041  0.74151945    -0.02800
O872        O  0.63406263  0.56461777  0.49723078    -0.75610
O873        O  0.68832287  0.61253797  0.49482435    -0.54510
C874        C  0.64791533  0.60217260  0.49633288     0.78120
O875        O  0.75930221  0.93128851  0.62973781    -0.60210
O876        O  0.75716410  0.88083264  0.57318829    -0.53240
C877        C  0.75818339  0.89342051  0.61586438     0.70140
O878        O  0.76321702  0.56751600  0.62745261    -0.74760
O879        O  0.75354083  0.61295343  0.56940409    -0.55330
C880        C  0.75901454  0.60438990  0.61248214     0.76140
O881        O  0.63407394  0.92564801  0.49597822    -0.59910
O882        O  0.68850200  0.87761936  0.49905508    -0.53030
C883        C  0.64799577  0.88805758  0.49718658     0.72730
Zr884      Zr  0.66572935  0.99500063  0.49629325     2.54710
O885        O  0.61017206  0.99683049  0.55579664    -0.80470
O886        O  0.61412200  0.99099894  0.43214153    -0.93890
Zr887      Zr  0.75718837  0.99826673  0.59430181     2.64680
O888        O  0.69663717  0.50154084  0.64806519    -0.98850
O889        O  0.81151059  0.99845996  0.65594818    -0.80910
O890        O  0.71049269  0.53669732  0.54554902    -0.84260
O891        O  0.71075275  0.95671737  0.54693999    -2.18970
O892        O  0.76465157  0.92349220  0.36739151    -0.67650
O893        O  0.75549536  0.87781123  0.42517548    -0.52220
C894        C  0.76106394  0.88665833  0.38222989     0.71110
O895        O  0.88023650  0.56497751  0.49905348    -0.60560
O896        O  0.82503406  0.61233416  0.49936100    -0.52540
C897        C  0.86567032  0.60247005  0.49948766     0.72920
O898        O  0.88007914  0.92499160  0.49873617    -0.71960
O899        O  0.82524859  0.87748971  0.49841631    -0.50630
C900        C  0.86574760  0.88753029  0.49845633     0.74300
O901        O  0.75821317  0.55837349  0.36487286    -0.67290
O902        O  0.75671379  0.60865620  0.42164436    -0.54480
C903        C  0.75727272  0.59613382  0.37892156     0.72680
Zr904      Zr  0.75821098  0.99205923  0.40116858     2.77540
O905        O  0.81494872  0.49403364  0.34290422    -0.98040
O906        O  0.69856432  0.98861590  0.34544977    -0.78860
Zr907      Zr  0.84912209  0.99506076  0.49896444     2.70070
O908        O  0.90329443  0.99432018  0.43800933    -0.80100
O909        O  0.90198167  0.99571698  0.56207183    -0.99190
Zr910      Zr  0.75677183  0.57446524  0.49629880     2.21500
Zr911      Zr  0.75704449  0.91559160  0.49901232     2.11130
O912        O  0.80406954  0.95349795  0.45031626    -2.47880
O913        O  0.80397409  0.53393537  0.44871407    -0.79900
O914        O  0.71126961  0.95333209  0.44842833    -0.72090
O915        O  0.80345739  0.53665718  0.54639908    -2.33050
O916        O  0.71104370  0.53353806  0.44716420    -2.29260
O917        O  0.80355113  0.95626989  0.54791233    -0.73850
H918        H  0.69293307  0.93952932  0.56603927     0.78140
H919        H  0.82123846  0.55494810  0.56530159     0.79230
H920        H  0.82209840  0.93521353  0.43183370     0.81460
H921        H  0.69333139  0.55070833  0.42753968     0.79060
H922        H  0.83875633  0.50661311  0.64064183     0.42100
H923        H  0.89469722  0.97127154  0.58060619     0.41070
H924        H  0.88990474  0.51044275  0.41280346     0.40750
H925        H  0.83512684  0.97130492  0.35086883     0.38680
H926        H  0.67979348  0.96608450  0.35647218     0.41810
H927        H  0.62291328  0.51317119  0.41102928     0.36600
H928        H  0.62223415  0.51518566  0.58050417     0.42710
H929        H  0.67752147  0.97825294  0.63863825     0.39130
H930        H  0.80061909  0.98460783  0.31377778     0.44050
H931        H  0.58627498  0.00061491  0.44552932     0.42770
H932        H  0.70930610  0.99304333  0.67803715     0.42910
H933        H  0.92987907  0.98840412  0.54711821     0.43260
C934        C  0.98447768  0.74500198  0.49804787     0.00250
C935        C  0.53003104  0.74518769  0.49743176     0.00250
C936        C  0.75460769  0.73979282  0.25557816    -0.02800
C937        C  0.73064445  0.99668722  0.99661248     0.00250
C938        C  0.77623770  0.99687007  0.99758565     0.00250
O939        O  0.56829773  0.74427890  0.86326674    -0.75610
O940        O  0.62232076  0.74823129  0.91797861    -0.54510
C941        C  0.60793169  0.74670800  0.87574015     0.78120
O942        O  0.92948919  0.86184231  0.99593535    -0.60210
O943        O  0.87743392  0.81169792  0.99677180    -0.53240
C944        C  0.88960876  0.84990239  0.99628954     0.70140
O945        O  0.57543364  0.86205126  0.99520103    -0.74760
O946        O  0.62809918  0.81240394  0.99704810    -0.55330
C947        C  0.61552979  0.85060868  0.99711472     0.76140
O948        O  0.92995909  0.74820463  0.86541611    -0.59910
O949        O  0.88025855  0.74104576  0.92243191    -0.53030
C950        C  0.89104853  0.74458066  0.87961501     0.72730
Zr951      Zr  0.50019415  0.74332252  0.90071970     2.54710
O952        O  0.50065385  0.79286724  0.83830076    -0.80470
O953        O  0.99699449  0.68245205  0.84978212    -0.93890
Zr954      Zr  0.50255518  0.83248026  0.99521027     2.64680
O955        O  0.50761163  0.88247542  0.93359430    -0.98850
O956        O  0.99689930  0.88537332  0.05586333    -0.80910
O957        O  0.54419533  0.78848363  0.94629056    -0.84260
O958        O  0.95874423  0.78927540  0.94720564    -2.18970
O959        O  0.93074662  0.62996804  0.99892089    -0.67650
O960        O  0.87855889  0.68035406  0.99813741    -0.52220
C961        C  0.89087641  0.64211700  0.99906871     0.71110
O962        O  0.57903668  0.75224900  0.12418692    -0.60560
O963        O  0.62980716  0.75155962  0.06704110    -0.52540
C964        C  0.61870298  0.75347661  0.11000848     0.72920
O965        O  0.93080570  0.75074105  0.12504138    -0.72000
O966        O  0.87852681  0.75056375  0.06841101    -0.50630
C967        C  0.89084121  0.75108424  0.11100915     0.74300
O968        O  0.57498731  0.62905615  0.99321334    -0.67290
O969        O  0.62717530  0.67933811  0.99452881    -0.54480
C970        C  0.61472320  0.64104567  0.99308317     0.72680
Zr971      Zr  0.50326363  0.65998795  0.99751855     2.77540
O972        O  0.50993238  0.61197200  0.06106602    -0.98040
O973        O  0.50041475  0.60565913  0.93800276    -0.78860
Zr974      Zr  0.50466694  0.74869274  0.09296743     2.70070
O975        O  0.50624978  0.69409179  0.14984068    -0.80100
O976        O  0.50523931  0.80306972  0.15232338    -0.99190
Zr977      Zr  0.58836916  0.74648351  0.99479271     2.21500
Zr978      Zr  0.91804629  0.74615598  0.99674788     2.11130
O979        O  0.96119347  0.70377565  0.04638068    -2.47880
O980        O  0.54706122  0.70400651  0.04509719    -0.79900
O981        O  0.95883531  0.70039919  0.94841853    -0.72090
O982        O  0.54600138  0.79119407  0.04400859    -2.33050
O983        O  0.54485836  0.70131109  0.94754526    -2.29260
O984        O  0.96123488  0.79087394  0.04492652    -0.73850
H985        H  0.94004707  0.80598459  0.92809304     0.78140
H986        H  0.56433470  0.80905708  0.06281663     0.79230
H987        H  0.94304241  0.68729985  0.06593020     0.81460
H988        H  0.56295049  0.68394272  0.92806306     0.79060
H989        H  0.50545342  0.87108453  0.08452723     0.42100
H990        H  0.98264090  0.82284586  0.14231152     0.41070
H991        H  0.53245279  0.67759842  0.14210003     0.40750
H992        H  0.99112297  0.62366168  0.08570782     0.38680
H993        H  0.97645937  0.61397823  0.91706787     0.41810
H994        H  0.51865917  0.66292748  0.86239135     0.36600
H995        H  0.51841712  0.81620117  0.85042502     0.42710
H996        H  0.98928677  0.87096166  0.90821419     0.39130
H997        H  0.49483181  0.58663806  0.04995163     0.44050
H998        H  0.00966434  0.69157738  0.82028369     0.42770
H999        H  0.49162276  0.90710035  0.94529914     0.42910
H1000       H  0.49309954  0.79002538  0.18011814     0.43260
C1001       C  0.83375640  0.54397232  0.03534320    -0.02160
C1002       C  0.80243235  0.53728352  0.99931270     0.07520
C1003       C  0.79933233  0.56793219  0.96426581    -0.02270
C1004       C  0.82619666  0.60352410  0.96587125    -0.02280
C1005       C  0.85753977  0.60881936  0.00118489     0.07650
C1006       C  0.86040238  0.57938172  0.03634223    -0.02470
Br1007     Br  0.90048620  0.58837715  0.08755093    -0.01020
Br1008     Br  0.84100509  0.50603483  0.08561757    -0.01090
Br1009     Br  0.82281982  0.64366275  0.91712071    -0.01050
Br1010     Br  0.76502100  0.55937946  0.90874592    -0.01040
C1011       C  0.66858032  0.95381458  0.03051964    -0.02160
C1012       C  0.70342337  0.95683866  0.99830567     0.07520
C1013       C  0.71015702  0.92206154  0.96789837    -0.02270
C1014       C  0.68602091  0.88518411  0.97303194    -0.02280
C1015       C  0.64839161  0.88488630  0.00054268     0.07650
C1016       C  0.64019633  0.91962369  0.02954144    -0.02470
Br1017     Br  0.59146167  0.91962523  0.07163899    -0.01020
Br1018     Br  0.65972810  0.99354768  0.08021890    -0.01090
Br1019     Br  0.70614750  0.83487765  0.94366243    -0.01050
Br1020     Br  0.74577273  0.92521924  0.91338324    -0.01040
C1021       C  0.83555393  0.95042030  0.96233579    -0.02160
C1022       C  0.80333957  0.95688942  0.99709783     0.07520
C1023       C  0.79869108  0.92543194  0.03090706    -0.02270
C1024       C  0.82472992  0.88907244  0.02906007    -0.02280
C1025       C  0.85639680  0.88363136  0.99446453     0.07650
C1026       C  0.86028306  0.91371136  0.96028892    -0.02470
Br1027     Br  0.89800660  0.90298949  0.90797083    -0.01020
Br1028     Br  0.84623912  0.98974896  0.91443309    -0.01090
Br1029     Br  0.81842618  0.84728479  0.07538453    -0.01050
Br1030     Br  0.76161444  0.93312131  0.08413070    -0.01040
C1031       C  0.67435866  0.54257898  0.95680600    -0.02160
C1032       C  0.70428036  0.53677590  0.99412436     0.07520
C1033       C  0.70426880  0.56702001  0.03080036    -0.02270
C1034       C  0.67291303  0.59903569  0.03123762    -0.02280
C1035       C  0.64779841  0.60732521  0.99180921     0.07650
C1036       C  0.64855348  0.57870696  0.95454623    -0.02470
Br1037     Br  0.61160897  0.58774091  0.90138793    -0.01020
Br1038     Br  0.66818725  0.50221032  0.90706090    -0.01090
Br1039     Br  0.65459060  0.62300912  0.08926417    -0.01050
Br1040     Br  0.74085297  0.56238807  0.08507509    -0.01040
C1041       C  0.80220683  0.70880401  0.18609474    -0.02160
C1042       C  0.79615640  0.74020198  0.22163061     0.07520
C1043       C  0.83013277  0.77139752  0.22302928    -0.02270
C1044       C  0.85713161  0.77747545  0.18442093    -0.02280
C1045       C  0.85665080  0.74959370  0.14679145     0.07650
C1046       C  0.82841390  0.71580084  0.14737379    -0.02470
Br1047     Br  0.82722716  0.67678062  0.09576490    -0.01020
Br1048     Br  0.78932079  0.65080368  0.19406320    -0.01090
Br1049     Br  0.89386172  0.82586478  0.18180601    -0.01050
Br1050     Br  0.85177079  0.79950941  0.27884556    -0.01040
C1051       C  0.67639831  0.77260878  0.22677226    -0.02160
C1052       C  0.71188519  0.74271866  0.22329386     0.07520
C1053       C  0.70827055  0.71536395  0.18461194    -0.02270
C1054       C  0.68983688  0.72956670  0.14367386    -0.02280
C1055       C  0.65344234  0.75549892  0.14657430     0.07650
C1056       C  0.64722339  0.77773652  0.18866501    -0.02470
Br1057     Br  0.60224873  0.81962555  0.19165319    -0.01020
Br1058     Br  0.65995320  0.80313665  0.28303584    -0.01090
Br1059     Br  0.71375344  0.71032576  0.08597737    -0.01050
Br1060     Br  0.68609598  0.66104261  0.19646914    -0.01040
C1061       C  0.75294505  0.85535062  0.30056239    -0.02160
C1062       C  0.76378005  0.85167923  0.34799564     0.07520
C1063       C  0.77634350  0.81293220  0.36385849    -0.02270
C1064       C  0.76521817  0.77711125  0.33873823    -0.02280
C1065       C  0.75687912  0.77888398  0.28934403     0.07650
C1066       C  0.75477572  0.82016068  0.27057305    -0.02470
Br1067     Br  0.75271865  0.83117777  0.20431209    -0.01020
Br1068     Br  0.73356719  0.90746298  0.27550659    -0.01090
Br1069     Br  0.75829765  0.73173578  0.38053541    -0.01050
Br1070     Br  0.81424734  0.80857169  0.41767675    -0.01040
C1071       C  0.71460388  0.68126280  0.30354639    -0.02160
C1072       C  0.75412585  0.69808473  0.28404597     0.07520
C1073       C  0.79387707  0.67643567  0.29642427    -0.02270
C1074       C  0.79267875  0.63877562  0.31994262    -0.02280
C1075       C  0.75524277  0.62745885  0.34294523     0.07650
C1076       C  0.71619047  0.64751049  0.33388582    -0.02470
Br1077     Br  0.66496696  0.62857473  0.36584148    -0.01020
Br1078     Br  0.65729045  0.70497076  0.29932153    -0.01090
Br1079     Br  0.84287931  0.60238206  0.32214191    -0.01050
Br1080     Br  0.85232191  0.69709832  0.29046499    -0.01040
C1081       C  0.93049189  0.84948057  0.46497040    -0.02160
C1082       C  0.89809156  0.85318731  0.49902892     0.07520
C1083       C  0.89546939  0.82310275  0.53324804    -0.02270
C1084       C  0.92468507  0.78962458  0.53399384    -0.02280
C1085       C  0.95725195  0.78465911  0.49939144     0.07650
C1086       C  0.95955497  0.81537129  0.46454574    -0.02470
Br1087     Br  0.99699974  0.80903757  0.41146026    -0.01020
Br1088     Br  0.93218969  0.88931495  0.41596124    -0.01090
Br1089     Br  0.92012246  0.75289230  0.58571770    -0.01050
Br1090     Br  0.85194352  0.82826346  0.58061676    -0.01040
C1091       C  0.55261935  0.67288880  0.46522015    -0.02160
C1092       C  0.55708715  0.70554133  0.49882297     0.07520
C1093       C  0.59085669  0.70191396  0.53259083    -0.02270
C1094       C  0.61965536  0.66803169  0.53180393    -0.02280
C1095       C  0.61518228  0.63622042  0.49826140     0.07650
C1096       C  0.58016695  0.63780166  0.46651178    -0.02470
Br1097     Br  0.57038467  0.59248804  0.42320404    -0.01020
Br1098     Br  0.51474874  0.67774256  0.41197602    -0.01090
Br1099     Br  0.66385226  0.66392283  0.57943577    -0.01050
Br1100     Br  0.59774665  0.74145402  0.58293365    -0.01040
C1101       C  0.61924783  0.82202378  0.46220535    -0.02160
C1102       C  0.61516355  0.85413112  0.49540609     0.07520
C1103       C  0.58033618  0.85307643  0.52690501    -0.02270
C1104       C  0.55308079  0.81793554  0.52881393    -0.02280
C1105       C  0.55697995  0.78494636  0.49547080     0.07650
C1106       C  0.59027400  0.78833819  0.46150940    -0.02470
Br1107     Br  0.59653280  0.74874731  0.41105957    -0.01020
Br1108     Br  0.66322768  0.82563770  0.41490086    -0.01090
Br1109     Br  0.51681204  0.81354419  0.58277037    -0.01050
Br1110     Br  0.57033480  0.89937616  0.56891244    -0.01040
C1111       C  0.93197810  0.64004353  0.53156797    -0.02160
C1112       C  0.89779890  0.63705401  0.49886817     0.07520
C1113       C  0.89344403  0.66800587  0.46567333    -0.02270
C1114       C  0.92330703  0.70072984  0.46369406    -0.02280
C1115       C  0.95738195  0.70521970  0.49716268     0.07650
C1116       C  0.96093336  0.67417594  0.53163946    -0.02470
Br1117     Br  0.00004066  0.68006238  0.58392681    -0.01020
Br1118     Br  0.93624147  0.59937804  0.57960396    -0.01090
Br1119     Br  0.91736446  0.73704877  0.41164572    -0.01050
Br1120     Br  0.84602645  0.66587399  0.42184022    -0.01040
C1121       C  0.78056103  0.75406840  0.82768684    -0.02160
C1122       C  0.78608670  0.74723791  0.77840677     0.07520
C1123       C  0.82960140  0.73582065  0.76483255    -0.02270
C1124       C  0.86218033  0.72967970  0.79871372    -0.02280
C1125       C  0.85630083  0.74551753  0.84417789     0.07650
C1126       C  0.81625920  0.76280166  0.85564835    -0.02470
Br1127     Br  0.80836779  0.79763362  0.91005068    -0.01020
Br1128     Br  0.73624504  0.73118840  0.86672249    -0.01090
Br1129     Br  0.91420271  0.69958486  0.78156935    -0.01050
Br1130     Br  0.85016113  0.73498928  0.70174707    -0.01040
C1131       C  0.64384122  0.71624894  0.80631128    -0.02160
C1132       C  0.63824499  0.74951148  0.83744874     0.07520
C1133       C  0.65658468  0.78759025  0.82769365    -0.02270
C1134       C  0.69180656  0.78921606  0.79722405    -0.02280
C1135       C  0.70343836  0.75328046  0.76890724     0.07650
C1136       C  0.67234930  0.71986403  0.76882536    -0.02470
Br1137     Br  0.65714947  0.68446579  0.71586872    -0.01020
Br1138     Br  0.61111220  0.66605114  0.81421787    -0.01090
Br1139     Br  0.72415207  0.84026237  0.80251142    -0.01050
Br1140     Br  0.63169591  0.83730821  0.85530712    -0.01040
C1141       C  0.71557470  0.84181266  0.65744614    -0.02160
C1142       C  0.75485097  0.86225732  0.65205383     0.07520
C1143       C  0.78902511  0.85514407  0.68300118    -0.02270
C1144       C  0.78612884  0.82335176  0.71586575    -0.02280
C1145       C  0.74977125  0.79461096  0.71456746     0.07650
C1146       C  0.71255311  0.80815519  0.68747515    -0.02470
Br1147     Br  0.65709952  0.78077980  0.68375949    -0.01020
Br1148     Br  0.66616893  0.85951030  0.62078574    -0.01090
Br1149     Br  0.82860655  0.82972717  0.76553982    -0.01050
Br1150     Br  0.83950319  0.89090527  0.68078196    -0.01040
C1151       C  0.75306612  0.67092157  0.72423481    -0.02160
C1152       C  0.75244485  0.71261650  0.70659524     0.07520
C1153       C  0.76183210  0.71475943  0.65723666    -0.02270
C1154       C  0.77251631  0.67882170  0.63126592    -0.02280
C1155       C  0.76078539  0.63979557  0.64665272     0.07650
C1156       C  0.75100681  0.63589833  0.69393805    -0.02470
Br1157     Br  0.73207400  0.58341779  0.71827135    -0.01020
Br1158     Br  0.75388771  0.65778741  0.78914823    -0.01090
Br1159     Br  0.81029028  0.68245854  0.57753759    -0.01050
Br1160     Br  0.76702580  0.76270085  0.61894456    -0.01040
loop_ 
_geom_bond_atom_site_label_1 
_geom_bond_atom_site_label_2 
_geom_bond_distance 
_geom_bond_site_symmetry_2 
_ccdc_geom_bond_type 
C1          C252   1.590       .  S
C1          C265   1.586       .  S
C1          C275   1.599       .  S
C1          C282   1.613       .  S
O2            C4   1.289       .  A
O2         Zr304   2.450   1_545  S
O3            C4   1.291       .  A
O3          Zr40   2.438       .  S
C4          C225   1.491       .  S
O5            C7   1.281       .  A
O5          Zr17   2.413       .  S
O6            C7   1.290       .  A
O6          Zr41   2.438       .  S
C7          C272   1.470       .  S
O8           C10   1.282       .  A
O8         Zr307   2.425   1_545  S
O9           C10   1.289       .  A
O9          Zr40   2.432       .  S
C10         C285   1.498       .  S
O11          C13   1.288       .  A
O11         Zr14   2.447       .  S
O12          C13   1.292       .  A
O12         Zr41   2.445       .  S
C13         C232   1.494       .  S
Zr14        O292   2.450       .  S
Zr14         O15   2.433       .  S
Zr14         O16   2.434       .  S
Zr14         O21   2.371       .  S
Zr14         O44   2.374       .  S
Zr14        O310   2.377       .  S
Zr14        O336   2.371       .  S
O15         H348   0.990       .  S
O16          H61   0.990       .  S
O16         H347   0.990       .  S
Zr17        O298   2.425       .  S
Zr17         O19   2.434       .  S
Zr17        O308   2.436       .  S
Zr17         O21   2.373       .  S
Zr17         O47   2.371       .  S
Zr17        O310   2.371       .  S
Zr17        O335   2.364       .  S
O18        Zr307   2.436   1_545  S
O18         H349   0.990   1_545  S
O18         H352   0.990   1_545  S
O19         H342   0.990       .  S
O20         Zr40   2.377       .  S
O20        Zr304   2.377   1_545  S
O20        Zr307   2.371   1_545  S
O21         Zr41   2.379       .  S
O21          H48   0.966       .  S
O22          C24   1.279       .  A
O22         Zr34   2.413       .  S
O23          C24   1.291       .  A
O23         Zr41   2.437       .  S
C24         C192   1.490       .  S
O25          C27   1.291       .  A
O25        Zr327   2.458   1_545  S
O26          C27   1.290       .  A
O26         Zr40   2.436       .  S
C27         C242   1.496       .  S
O28          C30   1.290       .  A
O28         Zr37   2.455       .  S
O29          C30   1.290       .  A
O29         Zr41   2.431       .  S
C30         C212   1.489       .  S
O31          C33   1.279       .  A
O31        Zr324   2.405   1_545  S
O32          C33   1.291       .  A
O32         Zr40   2.442       .  S
C33         C205   1.466       .  S
Zr34        O321   2.405       .  S
Zr34         O36   2.434       .  S
Zr34        O325   2.436       .  S
Zr34         O42   2.364       .  S
Zr34         O44   2.372       .  S
Zr34        O333   2.370       .  S
Zr34        O336   2.370       .  S
O35        Zr324   2.436       .  S
O35         H345   0.990       .  S
O35         H350   0.990       .  S
O36          H56   0.990       .  S
Zr37        O315   2.458       .  S
Zr37         O38   2.434       .  S
Zr37         O39   2.434       .  S
Zr37         O42   2.369       .  S
Zr37         O47   2.377       .  S
Zr37        O333   2.377       .  S
Zr37        O335   2.368       .  S
O38         H344   0.990       .  S
O39          H53   0.990       .  S
O39          H63   0.990       .  S
Zr40         O43   2.380       .  S
Zr40         O45   2.383       .  S
Zr40         O46   2.378       .  S
Zr41         O42   2.384       .  S
Zr41         O44   2.374       .  S
Zr41         O47   2.384       .  S
O42          H50   0.966       .  S
O43        Zr324   2.370   1_545  S
O43        Zr327   2.377   1_545  S
O45        Zr307   2.364   1_545  S
O45        Zr327   2.368   1_545  S
O45          H49   0.966       .  S
O46        Zr304   2.371   1_545  S
O46        Zr324   2.370   1_545  S
O46          H51   0.966       .  S
H52         O309   0.990   1_545  S
H54         O328   0.990   1_545  S
H55         O325   0.990       .  S
H57         O306   0.990   1_545  S
H58         O305   0.990   1_545  S
H59         O308   0.990       .  S
H60         O325   0.990       .  S
H62         O308   0.990       .  S
C64         C215   1.530       .  S
C64         C245   1.535       .  S
C64         C645   1.403       .  D
C65         C222   1.527       .  S
C65         C235   1.534       .  S
C65         C644   1.403   1_455  D
C66         C172   1.618       .  S
C66         C182   1.610       .  S
C66         C195   1.583       .  S
C66         C202   1.593       .  S
C67         C142   1.541       .  S
C67         C452   1.530       .  S
C67          C68   1.404       .  D
C68         C152   1.536       .  S
C68         C422   1.537       .  S
O69          C71   1.272       .  A
O69         Zr81   2.367       .  S
O70          C71   1.295       .  A
O70        Zr107   2.461       .  S
C71         C262   1.457       .  S
O72          C74   1.289       .  A
O72        Zr664   2.439       .  S
O73          C74   1.292       .  A
O73        Zr108   2.457       .  S
C74         C155   1.494       .  S
O75          C77   1.289       .  A
O75         Zr84   2.442       .  S
O76          C77   1.293       .  A
O76        Zr107   2.460       .  S
C77         C145   1.504   1_556  S
O78          C80   1.276       .  A
O78        Zr661   2.390       .  S
O79          C80   1.290       .  A
O79        Zr108   2.437       .  S
C80         C255   1.476       .  S
Zr81        O658   2.390   1_455  S
Zr81         O82   2.435       .  S
Zr81        O663   2.436   1_455  S
Zr81         O87   2.369       .  S
Zr81        O113   2.366       .  S
Zr81        O668   2.361   1_455  S
Zr81        O691   2.357   1_455  S
O82         H125   0.990       .  S
O83        Zr661   2.436       .  S
O83         H128   0.990       .  S
O83         H704   0.989       .  S
Zr84        O652   2.439   1_455  S
Zr84         O85   2.433       .  S
Zr84        O666   2.431   1_456  S
Zr84         O87   2.366       .  S
Zr84        O112   2.364   1_556  S
Zr84        O668   2.367   1_455  S
Zr84        O694   2.367   1_456  S
O85         H129   0.990   1_455  S
O85         H706   0.989   1_455  S
O86        Zr664   2.431   1_554  S
O86         H699   0.989       .  S
O87        Zr107   2.385       .  S
O88        Zr108   2.382       .  S
O88        Zr661   2.361       .  S
O88        Zr664   2.367       .  S
O88         H115   0.966       .  S
O89          C91   1.288       .  A
O89        Zr681   2.438       .  S
O90          C91   1.293       .  A
O90        Zr108   2.455       .  S
C91         C135   1.492   1_556  S
O92          C94   1.292       .  A
O92        Zr104   2.457       .  S
O93          C94   1.290       .  A
O93        Zr107   2.441   1_554  S
C94         C185   1.498       .  S
O95          C97   1.293       .  A
O95        Zr684   2.462       .  S
O96          C97   1.284       .  A
O96        Zr108   2.410   1_554  S
C97         C175   1.482       .  S
O98         C100   1.285       .  A
O98        Zr101   2.424       .  S
O99         C100   1.297       .  A
O99        Zr107   2.474       .  S
C100        C165   1.490       .  S
Zr101       O669   2.438   1_455  S
Zr101       O102   2.434   1_556  S
Zr101       O103   2.435       .  S
Zr101       O110   2.375   1_556  S
Zr101       O113   2.371       .  S
Zr101       O689   2.369   1_456  S
Zr101       O691   2.371   1_455  S
O102        H127   0.990   1_455  S
O102        H702   0.989   1_455  S
O103        H703   0.990   1_455  S
Zr104       O675   2.462   1_455  S
Zr104       O105   2.434       .  S
Zr104       O106   2.431       .  S
Zr104       O110   2.375       .  S
Zr104       O112   2.371       .  S
Zr104       O689   2.371   1_455  S
Zr104       O694   2.368   1_455  S
O105        H121   0.990       .  S
O106        H130   0.990   1_455  S
O106        H700   0.989   1_455  S
Zr107       O110   2.394   1_556  S
Zr107       O112   2.397   1_556  S
Zr107       O113   2.387       .  S
Zr108       O109   2.394   1_556  S
Zr108       O111   2.376       .  S
Zr108       O114   2.388   1_556  S
O109       Zr681   2.369   1_554  S
O109       Zr684   2.371       .  S
O109        H117   0.966       .  S
O111       Zr661   2.357       .  S
O111       Zr681   2.371       .  S
O112        H116   0.966       .  S
O113        H118   0.966       .  S
O114       Zr664   2.367   1_554  S
O114       Zr684   2.368       .  S
H119        O666   0.989   1_455  S
H120        O686   0.989       .  S
H122        O682   0.989       .  S
H123        O683   0.990       .  S
H124        O663   0.989   1_455  S
H126        O665   0.989       .  S
C131        C132   1.427   1_554  A
C131        C136   1.410       .  A
C131       Br138   1.930       .  S
C132        C358   1.537   1_545  S
C132        C133   1.432       .  A
C133        C134   1.419       .  A
C133       Br140   1.929       .  S
C134        C135   1.407   1_556  A
C134       Br139   1.935       .  S
C135        C136   1.407       .  A
C136       Br137   1.937       .  S
C141        C142   1.430   1_554  A
C141        C146   1.411       .  A
C141       Br148   1.928       .  S
C142        C143   1.429       .  A
C143        C144   1.418       .  A
C143       Br150   1.930       .  S
C144        C145   1.410   1_556  A
C144       Br149   1.923       .  S
C145        C146   1.411       .  A
C146       Br147   1.938       .  S
C151        C152   1.428       .  A
C151        C156   1.408       .  A
C151       Br158   1.928       .  S
C152        C153   1.432   1_556  A
C153        C154   1.421       .  A
C153       Br160   1.933       .  S
C154        C155   1.409   1_554  A
C154       Br159   1.931       .  S
C155        C156   1.405       .  A
C156       Br157   1.938       .  S
C161        C162   1.427       .  A
C161        C166   1.413       .  A
C161       Br168   1.931       .  S
C162        C357   1.530   1_545  S
C162        C163   1.427   1_556  A
C163        C164   1.413       .  A
C163       Br170   1.931       .  S
C164        C165   1.401   1_554  A
C164       Br169   1.920       .  S
C165        C166   1.406       .  A
C166       Br167   1.930       .  S
C171        C172   1.442       .  A
C171        C176   1.406       .  A
C171       Br178   1.936       .  S
C172        C173   1.455       .  A
C173        C174   1.413       .  A
C173       Br180   1.949       .  S
C174        C175   1.398       .  A
C174       Br179   1.936       .  S
C175        C176   1.399       .  A
C176       Br177   1.934       .  S
C181        C182   1.459       .  A
C181        C186   1.427       .  A
C181       Br188   1.954       .  S
C182        C183   1.415       .  A
C183        C184   1.393       .  A
C183       Br190   1.924       .  S
C184        C185   1.399       .  A
C184       Br189   1.918       .  S
C185        C186   1.414       .  A
C186       Br187   1.935       .  S
C191        C192   1.415       .  A
C191        C196   1.418       .  A
C191       Br198   1.937       .  S
C192        C193   1.395       .  A
C193        C194   1.397       .  A
C193       Br200   1.944       .  S
C194        C195   1.450       .  A
C194       Br199   1.931       .  S
C195        C196   1.451       .  A
C196       Br197   1.954       .  S
C201        C202   1.456       .  A
C201        C206   1.413       .  A
C201       Br208   1.926       .  S
C202        C203   1.454       .  A
C203        C204   1.406       .  A
C203       Br210   1.932       .  S
C204        C205   1.388       .  A
C204       Br209   1.941       .  S
C205        C206   1.390       .  A
C206       Br207   1.940       .  S
C211        C212   1.409       .  A
C211        C216   1.418       .  A
C211       Br218   1.933       .  S
C212        C213   1.403       .  A
C213        C214   1.406       .  A
C213       Br220   1.927       .  S
C214        C215   1.427       .  A
C214       Br219   1.932       .  S
C215        C216   1.430       .  A
C216       Br217   1.932       .  S
C221        C222   1.426       .  A
C221        C226   1.415       .  A
C221       Br228   1.931       .  S
C222        C223   1.426       .  A
C223        C224   1.407       .  A
C223       Br230   1.928       .  S
C224        C225   1.405       .  A
C224       Br229   1.934       .  S
C225        C226   1.412       .  A
C226       Br227   1.931       .  S
C231        C232   1.405       .  A
C231        C236   1.410       .  A
C231       Br238   1.936       .  S
C232        C233   1.412       .  A
C233        C234   1.417       .  A
C233       Br240   1.934       .  S
C234        C235   1.428       .  A
C234       Br239   1.931       .  S
C235        C236   1.430       .  A
C236       Br237   1.931       .  S
C241        C242   1.411       .  A
C241        C246   1.421       .  A
C241       Br248   1.933       .  S
C242        C243   1.404       .  A
C243        C244   1.406       .  A
C243       Br250   1.926       .  S
C244        C245   1.427       .  A
C244       Br249   1.932       .  S
C245        C246   1.431       .  A
C246       Br247   1.931       .  S
C251        C252   1.447       .  A
C251        C256   1.386       .  A
C251       Br258   1.934       .  S
C252        C253   1.444       .  A
C253        C254   1.412       .  A
C253       Br260   1.933       .  S
C254        C255   1.413       .  A
C254       Br259   1.934       .  S
C255        C256   1.392       .  A
C256       Br257   1.931       .  S
C261        C262   1.399       .  A
C261        C266   1.405       .  A
C261       Br268   1.931       .  S
C262        C263   1.391       .  A
C263        C264   1.403       .  A
C263       Br270   1.939       .  S
C264        C265   1.453       .  A
C264       Br269   1.933       .  S
C265        C266   1.446       .  A
C266       Br267   1.947       .  S
C271        C272   1.391       .  A
C271        C276   1.408       .  A
C271       Br278   1.938       .  S
C272        C273   1.397       .  A
C273        C274   1.416       .  A
C273       Br280   1.942       .  S
C274        C275   1.457       .  A
C274       Br279   1.943       .  S
C275        C276   1.454       .  A
C276       Br277   1.927       .  S
C281        C282   1.450       .  A
C281        C286   1.419       .  A
C281       Br288   1.930       .  S
C282        C283   1.459       .  A
C283        C284   1.410       .  A
C283       Br290   1.929       .  S
C284        C285   1.395       .  A
C284       Br289   1.951       .  S
C285        C286   1.409       .  A
C286       Br287   1.942       .  S
C291        C542   1.590       .  S
C291        C555   1.586       .  S
C291        C565   1.599       .  S
C291        C572   1.613       .  S
O292        C294   1.289       .  A
O293        C294   1.291       .  A
O293       Zr330   2.438       .  S
C294        C515   1.491       .  S
O295        C297   1.281       .  A
O295       Zr307   2.413       .  S
O296        C297   1.290       .  A
O296       Zr331   2.438       .  S
C297        C562   1.470       .  S
O298        C300   1.282       .  A
O299        C300   1.289       .  A
O299       Zr330   2.432       .  S
C300        C575   1.498       .  S
O301        C303   1.288       .  A
O301       Zr304   2.447       .  S
O302        C303   1.292       .  A
O302       Zr331   2.445       .  S
C303        C522   1.494       .  S
Zr304       O305   2.433       .  S
Zr304       O306   2.434       .  S
Zr304       O311   2.371       .  S
Zr304       O334   2.374       .  S
O306        H351   0.990   1_565  S
Zr307       O309   2.434       .  S
Zr307       O311   2.373       .  S
Zr307       O337   2.371       .  S
O310       Zr330   2.377       .  S
O311       Zr331   2.379       .  S
O311        H338   0.966       .  S
O312        C314   1.279       .  A
O312       Zr324   2.413       .  S
O313        C314   1.291       .  A
O313       Zr331   2.437       .  S
C314        C482   1.490       .  S
O315        C317   1.291       .  A
O316        C317   1.290       .  A
O316       Zr330   2.436       .  S
C317        C532   1.496       .  S
O318        C320   1.290       .  A
O318       Zr327   2.455       .  S
O319        C320   1.290       .  A
O319       Zr331   2.431       .  S
C320        C502   1.489       .  S
O321        C323   1.279       .  A
O322        C323   1.291       .  A
O322       Zr330   2.442       .  S
C323        C495   1.466       .  S
Zr324       O326   2.434       .  S
Zr324       O332   2.364       .  S
Zr324       O334   2.372       .  S
O326        H346   0.990       .  S
Zr327       O328   2.434       .  S
Zr327       O329   2.434       .  S
Zr327       O332   2.369       .  S
Zr327       O337   2.377       .  S
O329        H343   0.990       .  S
O329        H353   0.990       .  S
Zr330       O333   2.380       .  S
Zr330       O335   2.383       .  S
Zr330       O336   2.378       .  S
Zr331       O332   2.384       .  S
Zr331       O334   2.374       .  S
Zr331       O337   2.384       .  S
O332        H340   0.966       .  S
O335        H339   0.966       .  S
O336        H341   0.966       .  S
C354        C505   1.530       .  S
C354        C535   1.535       .  S
C354        C935   1.403       .  D
C355        C512   1.527       .  S
C355        C525   1.534       .  S
C355        C934   1.403   1_455  D
C356        C462   1.618       .  S
C356        C472   1.610       .  S
C356        C485   1.583       .  S
C356        C492   1.593       .  S
C357        C432   1.541       .  S
C357        C358   1.404       .  D
C358        C442   1.536       .  S
O359        C361   1.272       .  A
O359       Zr371   2.367       .  S
O360        C361   1.295       .  A
O360       Zr397   2.461       .  S
C361        C552   1.457       .  S
O362        C364   1.289       .  A
O362       Zr954   2.439       .  S
O363        C364   1.292       .  A
O363       Zr398   2.457       .  S
C364        C445   1.494       .  S
O365        C367   1.289       .  A
O365       Zr374   2.442       .  S
O366        C367   1.293       .  A
O366       Zr397   2.460       .  S
C367        C435   1.504   1_556  S
O368        C370   1.276       .  A
O368       Zr951   2.390       .  S
O369        C370   1.290       .  A
O369       Zr398   2.437       .  S
C370        C545   1.476       .  S
Zr371       O948   2.390   1_455  S
Zr371       O372   2.435       .  S
Zr371       O953   2.436   1_455  S
Zr371       O377   2.369       .  S
Zr371       O958   2.361   1_455  S
Zr371       O981   2.357   1_455  S
Zr371       O403   2.366       .  S
O372        H415   0.990       .  S
O373       Zr951   2.436       .  S
O373        H994   0.989       .  S
O373        H418   0.990       .  S
Zr374       O942   2.439   1_455  S
Zr374       O375   2.433       .  S
Zr374       O956   2.431   1_456  S
Zr374       O958   2.367   1_455  S
Zr374       O377   2.366       .  S
Zr374       O402   2.364   1_556  S
Zr374       O984   2.367   1_456  S
O375        H996   0.989   1_455  S
O375        H419   0.990   1_455  S
O376       Zr954   2.431   1_554  S
O376        H989   0.989       .  S
O377       Zr397   2.385       .  S
O378       Zr951   2.361       .  S
O378       Zr954   2.367       .  S
O378       Zr398   2.382       .  S
O378        H405   0.966       .  S
O379        C381   1.288       .  A
O379       Zr971   2.438       .  S
O380        C381   1.293       .  A
O380       Zr398   2.455       .  S
C381        C425   1.492   1_556  S
O382        C384   1.292       .  A
O382       Zr394   2.457       .  S
O383        C384   1.290       .  A
O383       Zr397   2.441   1_554  S
C384        C475   1.498       .  S
O385        C387   1.293       .  A
O385       Zr974   2.462       .  S
O386        C387   1.284       .  A
O386       Zr398   2.410   1_554  S
C387        C465   1.482       .  S
O388        C390   1.285       .  A
O388       Zr391   2.424       .  S
O389        C390   1.297       .  A
O389       Zr397   2.474       .  S
C390        C455   1.490       .  S
Zr391       O959   2.438   1_455  S
Zr391       O392   2.434   1_556  S
Zr391       O393   2.435       .  S
Zr391       O979   2.369   1_456  S
Zr391       O400   2.375   1_556  S
Zr391       O403   2.371       .  S
Zr391       O981   2.371   1_455  S
O392        H992   0.989   1_455  S
O392        H417   0.990   1_455  S
O393        H993   0.990   1_455  S
Zr394       O965   2.462   1_455  S
Zr394       O395   2.434       .  S
Zr394       O396   2.431       .  S
Zr394       O400   2.375       .  S
Zr394       O979   2.371   1_455  S
Zr394       O984   2.368   1_455  S
Zr394       O402   2.371       .  S
O395        H411   0.990       .  S
O396        H990   0.989   1_455  S
O396        H420   0.990   1_455  S
Zr397       O400   2.394   1_556  S
Zr397       O402   2.397   1_556  S
Zr397       O403   2.387       .  S
Zr398       O399   2.394   1_556  S
Zr398       O401   2.376       .  S
Zr398       O404   2.388   1_556  S
O399       Zr971   2.369   1_554  S
O399       Zr974   2.371       .  S
O399        H407   0.966       .  S
O401       Zr951   2.357       .  S
O401       Zr971   2.371       .  S
O402        H406   0.966       .  S
O403        H408   0.966       .  S
O404       Zr954   2.367   1_554  S
O404       Zr974   2.368       .  S
H409        O956   0.989   1_455  S
H410        O976   0.989       .  S
H412        O972   0.989       .  S
H413        O973   0.990       .  S
H414        O953   0.989   1_455  S
H416        O955   0.989       .  S
C421        C422   1.427   1_554  A
C421        C426   1.410       .  A
C421       Br428   1.930       .  S
C422        C423   1.432       .  A
C423        C424   1.419       .  A
C423       Br430   1.929       .  S
C424        C425   1.407   1_556  A
C424       Br429   1.935       .  S
C425        C426   1.407       .  A
C426       Br427   1.937       .  S
C431        C432   1.430   1_554  A
C431        C436   1.411       .  A
C431       Br438   1.928       .  S
C432        C433   1.429       .  A
C433        C434   1.418       .  A
C433       Br440   1.930       .  S
C434        C435   1.410   1_556  A
C434       Br439   1.923       .  S
C435        C436   1.411       .  A
C436       Br437   1.938       .  S
C441        C442   1.428       .  A
C441        C446   1.408       .  A
C441       Br448   1.928       .  S
C442        C443   1.432   1_556  A
C443        C444   1.421       .  A
C443       Br450   1.933       .  S
C444        C445   1.409   1_554  A
C444       Br449   1.931       .  S
C445        C446   1.405       .  A
C446       Br447   1.938       .  S
C451        C452   1.427       .  A
C451        C456   1.413       .  A
C451       Br458   1.931       .  S
C452        C453   1.427   1_556  A
C453        C454   1.413       .  A
C453       Br460   1.931       .  S
C454        C455   1.401   1_554  A
C454       Br459   1.920       .  S
C455        C456   1.406       .  A
C456       Br457   1.930       .  S
C461        C462   1.442       .  A
C461        C466   1.406       .  A
C461       Br468   1.936       .  S
C462        C463   1.455       .  A
C463        C464   1.413       .  A
C463       Br470   1.949       .  S
C464        C465   1.398       .  A
C464       Br469   1.936       .  S
C465        C466   1.399       .  A
C466       Br467   1.934       .  S
C471        C472   1.459       .  A
C471        C476   1.427       .  A
C471       Br478   1.954       .  S
C472        C473   1.415       .  A
C473        C474   1.393       .  A
C473       Br480   1.924       .  S
C474        C475   1.399       .  A
C474       Br479   1.918       .  S
C475        C476   1.414       .  A
C476       Br477   1.935       .  S
C481        C482   1.415       .  A
C481        C486   1.418       .  A
C481       Br488   1.937       .  S
C482        C483   1.395       .  A
C483        C484   1.397       .  A
C483       Br490   1.944       .  S
C484        C485   1.450       .  A
C484       Br489   1.931       .  S
C485        C486   1.451       .  A
C486       Br487   1.954       .  S
C491        C492   1.456       .  A
C491        C496   1.413       .  A
C491       Br498   1.926       .  S
C492        C493   1.454       .  A
C493        C494   1.406       .  A
C493       Br500   1.932       .  S
C494        C495   1.388       .  A
C494       Br499   1.941       .  S
C495        C496   1.390       .  A
C496       Br497   1.940       .  S
C501        C502   1.409       .  A
C501        C506   1.418       .  A
C501       Br508   1.933       .  S
C502        C503   1.403       .  A
C503        C504   1.406       .  A
C503       Br510   1.927       .  S
C504        C505   1.427       .  A
C504       Br509   1.932       .  S
C505        C506   1.430       .  A
C506       Br507   1.932       .  S
C511        C512   1.426       .  A
C511        C516   1.415       .  A
C511       Br518   1.931       .  S
C512        C513   1.426       .  A
C513        C514   1.407       .  A
C513       Br520   1.928       .  S
C514        C515   1.405       .  A
C514       Br519   1.934       .  S
C515        C516   1.412       .  A
C516       Br517   1.931       .  S
C521        C522   1.405       .  A
C521        C526   1.410       .  A
C521       Br528   1.936       .  S
C522        C523   1.412       .  A
C523        C524   1.417       .  A
C523       Br530   1.934       .  S
C524        C525   1.428       .  A
C524       Br529   1.931       .  S
C525        C526   1.430       .  A
C526       Br527   1.931       .  S
C531        C532   1.411       .  A
C531        C536   1.421       .  A
C531       Br538   1.933       .  S
C532        C533   1.404       .  A
C533        C534   1.406       .  A
C533       Br540   1.926       .  S
C534        C535   1.427       .  A
C534       Br539   1.932       .  S
C535        C536   1.431       .  A
C536       Br537   1.931       .  S
C541        C542   1.447       .  A
C541        C546   1.386       .  A
C541       Br548   1.934       .  S
C542        C543   1.444       .  A
C543        C544   1.412       .  A
C543       Br550   1.933       .  S
C544        C545   1.413       .  A
C544       Br549   1.934       .  S
C545        C546   1.392       .  A
C546       Br547   1.931       .  S
C551        C552   1.399       .  A
C551        C556   1.405       .  A
C551       Br558   1.931       .  S
C552        C553   1.391       .  A
C553        C554   1.403       .  A
C553       Br560   1.939       .  S
C554        C555   1.453       .  A
C554       Br559   1.933       .  S
C555        C556   1.446       .  A
C556       Br557   1.947       .  S
C561        C562   1.391       .  A
C561        C566   1.408       .  A
C561       Br568   1.938       .  S
C562        C563   1.397       .  A
C563        C564   1.416       .  A
C563       Br570   1.942       .  S
C564        C565   1.457       .  A
C564       Br569   1.943       .  S
C565        C566   1.454       .  A
C566       Br567   1.927       .  S
C571        C572   1.450       .  A
C571        C576   1.419       .  A
C571       Br578   1.930       .  S
C572        C573   1.459       .  A
C573        C574   1.410       .  A
C573       Br580   1.929       .  S
C574        C575   1.395       .  A
C574       Br579   1.951       .  S
C575        C576   1.409       .  A
C576       Br577   1.942       .  S
C581        C832   1.590       .  S
C581        C845   1.586       .  S
C581        C855   1.599       .  S
C581        C862   1.613       .  S
O582        C584   1.289       .  A
O582       Zr884   2.450   1_545  S
O583        C584   1.291       .  A
O583       Zr620   2.438       .  S
C584        C805   1.491       .  S
O585        C587   1.281       .  A
O585       Zr597   2.413       .  S
O586        C587   1.290       .  A
O586       Zr621   2.438       .  S
C587        C852   1.470       .  S
O588        C590   1.282       .  A
O588       Zr887   2.425   1_545  S
O589        C590   1.289       .  A
O589       Zr620   2.432       .  S
C590        C865   1.498       .  S
O591        C593   1.288       .  A
O591       Zr594   2.447       .  S
O592        C593   1.292       .  A
O592       Zr621   2.445       .  S
C593        C812   1.494       .  S
Zr594       O872   2.450       .  S
Zr594       O595   2.433       .  S
Zr594       O596   2.434       .  S
Zr594       O890   2.377       .  S
Zr594       O601   2.371       .  S
Zr594       O624   2.374       .  S
Zr594       O916   2.371       .  S
O595        H928   0.990       .  S
O596        H927   0.990       .  S
O596        H641   0.990       .  S
Zr597       O878   2.425       .  S
Zr597       O888   2.436       .  S
Zr597       O599   2.434       .  S
Zr597       O601   2.373       .  S
Zr597       O890   2.371       .  S
Zr597       O915   2.364       .  S
Zr597       O627   2.371       .  S
O598       Zr887   2.436   1_545  S
O598        H929   0.990   1_545  S
O598        H932   0.990   1_545  S
O599        H922   0.990       .  S
O600       Zr884   2.377   1_545  S
O600       Zr887   2.371   1_545  S
O600       Zr620   2.377       .  S
O601       Zr621   2.379       .  S
O601        H628   0.966       .  S
O602        C604   1.279       .  A
O602       Zr614   2.413       .  S
O603        C604   1.291       .  A
O603       Zr621   2.437       .  S
C604        C772   1.490       .  S
O605        C607   1.291       .  A
O605       Zr907   2.458   1_545  S
O606        C607   1.290       .  A
O606       Zr620   2.436       .  S
C607        C822   1.496       .  S
O608        C610   1.290       .  A
O608       Zr617   2.455       .  S
O609        C610   1.290       .  A
O609       Zr621   2.431       .  S
C610        C792   1.489       .  S
O611        C613   1.279       .  A
O611       Zr904   2.405   1_545  S
O612        C613   1.291       .  A
O612       Zr620   2.442       .  S
C613        C785   1.466       .  S
Zr614       O901   2.405       .  S
Zr614       O905   2.436       .  S
Zr614       O616   2.434       .  S
Zr614       O622   2.364       .  S
Zr614       O913   2.370       .  S
Zr614       O916   2.370       .  S
Zr614       O624   2.372       .  S
O615       Zr904   2.436       .  S
O615        H925   0.990       .  S
O615        H930   0.990       .  S
O616        H636   0.990       .  S
Zr617       O895   2.458       .  S
Zr617       O618   2.434       .  S
Zr617       O619   2.434       .  S
Zr617       O913   2.377       .  S
Zr617       O622   2.369       .  S
Zr617       O627   2.377       .  S
Zr617       O915   2.368       .  S
O618        H924   0.990       .  S
O619        H633   0.990       .  S
O619        H643   0.990       .  S
Zr620       O623   2.380       .  S
Zr620       O625   2.383       .  S
Zr620       O626   2.378       .  S
Zr621       O622   2.384       .  S
Zr621       O624   2.374       .  S
Zr621       O627   2.384       .  S
O622        H630   0.966       .  S
O623       Zr904   2.370   1_545  S
O623       Zr907   2.377   1_545  S
O625       Zr887   2.364   1_545  S
O625       Zr907   2.368   1_545  S
O625        H629   0.966       .  S
O626       Zr884   2.371   1_545  S
O626       Zr904   2.370   1_545  S
O626        H631   0.966       .  S
H632        O889   0.990   1_545  S
H634        O908   0.990   1_545  S
H635        O905   0.990       .  S
H637        O886   0.990   1_545  S
H638        O885   0.990   1_545  S
H639        O888   0.990       .  S
H640        O905   0.990       .  S
H642        O888   0.990       .  S
C644        C795   1.530       .  S
C644        C825   1.535       .  S
C645        C802   1.527       .  S
C645        C815   1.534       .  S
C646        C752   1.618       .  S
C646        C762   1.610       .  S
C646        C775   1.583       .  S
C646        C782   1.593       .  S
C647        C722   1.541       .  S
C647       C1032   1.530       .  S
C647        C648   1.404       .  D
C648       C1002   1.537       .  S
C648        C732   1.536       .  S
O649        C651   1.272       .  A
O649       Zr661   2.367       .  S
O650        C651   1.295       .  A
O650       Zr687   2.461       .  S
C651        C842   1.457       .  S
O652        C654   1.289       .  A
O653        C654   1.292       .  A
O653       Zr688   2.457       .  S
C654        C735   1.494       .  S
O655        C657   1.289       .  A
O655       Zr664   2.442       .  S
O656        C657   1.293       .  A
O656       Zr687   2.460       .  S
C657        C725   1.504   1_556  S
O658        C660   1.276       .  A
O659        C660   1.290       .  A
O659       Zr688   2.437       .  S
C660        C835   1.476       .  S
Zr661       O662   2.435       .  S
Zr661       O667   2.369       .  S
Zr661       O693   2.366       .  S
O662        H705   0.990       .  S
O663        H708   0.990   1_655  S
Zr664       O665   2.433       .  S
Zr664       O667   2.366       .  S
Zr664       O692   2.364   1_556  S
O665        H709   0.990       .  S
O667       Zr687   2.385       .  S
O668       Zr688   2.382       .  S
O668        H695   0.966       .  S
O669        C671   1.288       .  A
O670        C671   1.293       .  A
O670       Zr688   2.455       .  S
C671        C715   1.492   1_556  S
O672        C674   1.292       .  A
O672       Zr684   2.457       .  S
O673        C674   1.290       .  A
O673       Zr687   2.441   1_554  S
C674        C765   1.498       .  S
O675        C677   1.293       .  A
O676        C677   1.284       .  A
O676       Zr688   2.410   1_554  S
C677        C755   1.482       .  S
O678        C680   1.285       .  A
O678       Zr681   2.424       .  S
O679        C680   1.297       .  A
O679       Zr687   2.474       .  S
C680        C745   1.490       .  S
Zr681       O682   2.434   1_556  S
Zr681       O683   2.435       .  S
Zr681       O690   2.375   1_556  S
Zr681       O693   2.371       .  S
O682        H707   0.990       .  S
Zr684       O685   2.434       .  S
Zr684       O686   2.431       .  S
Zr684       O690   2.375       .  S
Zr684       O692   2.371       .  S
O685        H701   0.990       .  S
O686        H710   0.990       .  S
Zr687       O690   2.394   1_556  S
Zr687       O692   2.397   1_556  S
Zr687       O693   2.387       .  S
Zr688       O689   2.394   1_556  S
Zr688       O691   2.376       .  S
Zr688       O694   2.388   1_556  S
O689        H697   0.966       .  S
O692        H696   0.966       .  S
O693        H698   0.966       .  S
C711        C712   1.427   1_554  A
C711        C716   1.410       .  A
C711       Br718   1.930       .  S
C712        C938   1.537   1_545  S
C712        C713   1.432       .  A
C713        C714   1.419       .  A
C713       Br720   1.929       .  S
C714        C715   1.407   1_556  A
C714       Br719   1.935       .  S
C715        C716   1.407       .  A
C716       Br717   1.937       .  S
C721        C722   1.430   1_554  A
C721        C726   1.411       .  A
C721       Br728   1.928       .  S
C722        C723   1.429       .  A
C723        C724   1.418       .  A
C723       Br730   1.930       .  S
C724        C725   1.410   1_556  A
C724       Br729   1.923       .  S
C725        C726   1.411       .  A
C726       Br727   1.938       .  S
C731        C732   1.428       .  A
C731        C736   1.408       .  A
C731       Br738   1.928       .  S
C732        C733   1.432   1_556  A
C733        C734   1.421       .  A
C733       Br740   1.933       .  S
C734        C735   1.409   1_554  A
C734       Br739   1.931       .  S
C735        C736   1.405       .  A
C736       Br737   1.938       .  S
C741        C742   1.427       .  A
C741        C746   1.413       .  A
C741       Br748   1.931       .  S
C742        C937   1.530   1_545  S
C742        C743   1.427   1_556  A
C743        C744   1.413       .  A
C743       Br750   1.931       .  S
C744        C745   1.401   1_554  A
C744       Br749   1.920       .  S
C745        C746   1.406       .  A
C746       Br747   1.930       .  S
C751        C752   1.442       .  A
C751        C756   1.406       .  A
C751       Br758   1.936       .  S
C752        C753   1.455       .  A
C753        C754   1.413       .  A
C753       Br760   1.949       .  S
C754        C755   1.398       .  A
C754       Br759   1.936       .  S
C755        C756   1.399       .  A
C756       Br757   1.934       .  S
C761        C762   1.459       .  A
C761        C766   1.427       .  A
C761       Br768   1.954       .  S
C762        C763   1.415       .  A
C763        C764   1.393       .  A
C763       Br770   1.924       .  S
C764        C765   1.399       .  A
C764       Br769   1.918       .  S
C765        C766   1.414       .  A
C766       Br767   1.935       .  S
C771        C772   1.415       .  A
C771        C776   1.418       .  A
C771       Br778   1.937       .  S
C772        C773   1.395       .  A
C773        C774   1.397       .  A
C773       Br780   1.944       .  S
C774        C775   1.450       .  A
C774       Br779   1.931       .  S
C775        C776   1.451       .  A
C776       Br777   1.954       .  S
C781        C782   1.456       .  A
C781        C786   1.413       .  A
C781       Br788   1.926       .  S
C782        C783   1.454       .  A
C783        C784   1.406       .  A
C783       Br790   1.932       .  S
C784        C785   1.388       .  A
C784       Br789   1.941       .  S
C785        C786   1.390       .  A
C786       Br787   1.940       .  S
C791        C792   1.409       .  A
C791        C796   1.418       .  A
C791       Br798   1.933       .  S
C792        C793   1.403       .  A
C793        C794   1.406       .  A
C793       Br800   1.927       .  S
C794        C795   1.427       .  A
C794       Br799   1.932       .  S
C795        C796   1.430       .  A
C796       Br797   1.932       .  S
C801        C802   1.426       .  A
C801        C806   1.415       .  A
C801       Br808   1.931       .  S
C802        C803   1.426       .  A
C803        C804   1.407       .  A
C803       Br810   1.928       .  S
C804        C805   1.405       .  A
C804       Br809   1.934       .  S
C805        C806   1.412       .  A
C806       Br807   1.931       .  S
C811        C812   1.405       .  A
C811        C816   1.410       .  A
C811       Br818   1.936       .  S
C812        C813   1.412       .  A
C813        C814   1.417       .  A
C813       Br820   1.934       .  S
C814        C815   1.428       .  A
C814       Br819   1.931       .  S
C815        C816   1.430       .  A
C816       Br817   1.931       .  S
C821        C822   1.411       .  A
C821        C826   1.421       .  A
C821       Br828   1.933       .  S
C822        C823   1.404       .  A
C823        C824   1.406       .  A
C823       Br830   1.926       .  S
C824        C825   1.427       .  A
C824       Br829   1.932       .  S
C825        C826   1.431       .  A
C826       Br827   1.931   1_655  S
C831        C832   1.447       .  A
C831        C836   1.386       .  A
C831       Br838   1.934       .  S
C832        C833   1.444       .  A
C833        C834   1.412       .  A
C833       Br840   1.933       .  S
C834        C835   1.413       .  A
C834       Br839   1.934       .  S
C835        C836   1.392       .  A
C836       Br837   1.931       .  S
C841        C842   1.399       .  A
C841        C846   1.405       .  A
C841       Br848   1.931       .  S
C842        C843   1.391       .  A
C843        C844   1.403       .  A
C843       Br850   1.939       .  S
C844        C845   1.453       .  A
C844       Br849   1.933       .  S
C845        C846   1.446       .  A
C846       Br847   1.947       .  S
C851        C852   1.391       .  A
C851        C856   1.408       .  A
C851       Br858   1.938       .  S
C852        C853   1.397       .  A
C853        C854   1.416       .  A
C853       Br860   1.942       .  S
C854        C855   1.457       .  A
C854       Br859   1.943       .  S
C855        C856   1.454       .  A
C856       Br857   1.927       .  S
C861        C862   1.450       .  A
C861        C866   1.419       .  A
C861       Br868   1.930       .  S
C862        C863   1.459       .  A
C863        C864   1.410       .  A
C863       Br870   1.929       .  S
C864        C865   1.395       .  A
C864       Br869   1.951       .  S
C865        C866   1.409       .  A
C866       Br867   1.942       .  S
C871       C1122   1.590       .  S
C871       C1135   1.586       .  S
C871       C1145   1.599       .  S
C871       C1152   1.613       .  S
O872        C874   1.289       .  A
O873        C874   1.291       .  A
O873       Zr910   2.438       .  S
C874       C1095   1.491       .  S
O875        C877   1.281       .  A
O875       Zr887   2.413       .  S
O876        C877   1.290       .  A
O876       Zr911   2.438       .  S
C877       C1142   1.470       .  S
O878        C880   1.282       .  A
O879        C880   1.289       .  A
O879       Zr910   2.432       .  S
C880       C1155   1.498       .  S
O881        C883   1.288       .  A
O881       Zr884   2.447       .  S
O882        C883   1.292       .  A
O882       Zr911   2.445       .  S
C883       C1102   1.494       .  S
Zr884       O885   2.433       .  S
Zr884       O886   2.434       .  S
Zr884       O891   2.371       .  S
Zr884       O914   2.374       .  S
O886        H931   0.990   1_565  S
Zr887       O889   2.434       .  S
Zr887       O891   2.373       .  S
Zr887       O917   2.371       .  S
O890       Zr910   2.377       .  S
O891       Zr911   2.379       .  S
O891        H918   0.966       .  S
O892        C894   1.279       .  A
O892       Zr904   2.413       .  S
O893        C894   1.291       .  A
O893       Zr911   2.437       .  S
C894       C1062   1.490       .  S
O895        C897   1.291       .  A
O896        C897   1.290       .  A
O896       Zr910   2.436       .  S
C897       C1112   1.496       .  S
O898        C900   1.290       .  A
O898       Zr907   2.455       .  S
O899        C900   1.290       .  A
O899       Zr911   2.431       .  S
C900       C1082   1.489       .  S
O901        C903   1.279       .  A
O902        C903   1.291       .  A
O902       Zr910   2.442       .  S
C903       C1075   1.466       .  S
Zr904       O906   2.434       .  S
Zr904       O912   2.364       .  S
Zr904       O914   2.372       .  S
O906        H926   0.990       .  S
Zr907       O908   2.434       .  S
Zr907       O909   2.434       .  S
Zr907       O912   2.369       .  S
Zr907       O917   2.377       .  S
O909        H923   0.990       .  S
O909        H933   0.990       .  S
Zr910       O913   2.380       .  S
Zr910       O915   2.383       .  S
Zr910       O916   2.378       .  S
Zr911       O912   2.384       .  S
Zr911       O914   2.374       .  S
Zr911       O917   2.384       .  S
O912        H920   0.966       .  S
O915        H919   0.966       .  S
O916        H921   0.966       .  S
C934       C1085   1.530       .  S
C934       C1115   1.535       .  S
C935       C1092   1.527       .  S
C935       C1105   1.534       .  S
C936       C1042   1.618       .  S
C936       C1052   1.610       .  S
C936       C1065   1.583       .  S
C936       C1072   1.593       .  S
C937       C1012   1.541       .  S
C937        C938   1.404       .  D
C938       C1022   1.536       .  S
O939        C941   1.272       .  A
O939       Zr951   2.367       .  S
O940        C941   1.295       .  A
O940       Zr977   2.461       .  S
C941       C1132   1.457       .  S
O942        C944   1.289       .  A
O943        C944   1.292       .  A
O943       Zr978   2.457       .  S
C944       C1025   1.494       .  S
O945        C947   1.289       .  A
O945       Zr954   2.442       .  S
O946        C947   1.293       .  A
O946       Zr977   2.460       .  S
C947       C1015   1.504   1_556  S
O948        C950   1.276       .  A
O949        C950   1.290       .  A
O949       Zr978   2.437       .  S
C950       C1125   1.476       .  S
Zr951       O952   2.435       .  S
Zr951       O957   2.369       .  S
Zr951       O983   2.366       .  S
O952        H995   0.990       .  S
O953        H998   0.990   1_655  S
Zr954       O955   2.433       .  S
Zr954       O957   2.366       .  S
Zr954       O982   2.364   1_556  S
O955        H999   0.990       .  S
O957       Zr977   2.385       .  S
O958       Zr978   2.382       .  S
O958        H985   0.966       .  S
O959        C961   1.288       .  A
O960        C961   1.293       .  A
O960       Zr978   2.455       .  S
C961       C1005   1.492   1_556  S
O962        C964   1.292       .  A
O962       Zr974   2.457       .  S
O963        C964   1.290       .  A
O963       Zr977   2.441   1_554  S
C964       C1055   1.498       .  S
O965        C967   1.293       .  A
O966        C967   1.284       .  A
O966       Zr978   2.410   1_554  S
C967       C1045   1.482       .  S
O968        C970   1.285       .  A
O968       Zr971   2.424       .  S
O969        C970   1.297       .  A
O969       Zr977   2.474       .  S
C970       C1035   1.490       .  S
Zr971       O972   2.434   1_556  S
Zr971       O973   2.435       .  S
Zr971       O980   2.375   1_556  S
Zr971       O983   2.371       .  S
O972        H997   0.990       .  S
Zr974       O975   2.434       .  S
Zr974       O976   2.431       .  S
Zr974       O980   2.375       .  S
Zr974       O982   2.371       .  S
O975        H991   0.990       .  S
O976       H1000   0.990       .  S
Zr977       O980   2.394   1_556  S
Zr977       O982   2.397   1_556  S
Zr977       O983   2.387       .  S
Zr978       O979   2.394   1_556  S
Zr978       O981   2.376       .  S
Zr978       O984   2.388   1_556  S
O979        H987   0.966       .  S
O982        H986   0.966       .  S
O983        H988   0.966       .  S
C1001      C1002   1.427   1_554  A
C1001      C1006   1.410       .  A
C1001     Br1008   1.930       .  S
C1002      C1003   1.432       .  A
C1003      C1004   1.419       .  A
C1003     Br1010   1.929       .  S
C1004      C1005   1.407   1_556  A
C1004     Br1009   1.935       .  S
C1005      C1006   1.407       .  A
C1006     Br1007   1.937       .  S
C1011      C1012   1.430   1_554  A
C1011      C1016   1.411       .  A
C1011     Br1018   1.928       .  S
C1012      C1013   1.429       .  A
C1013      C1014   1.418       .  A
C1013     Br1020   1.930       .  S
C1014      C1015   1.410   1_556  A
C1014     Br1019   1.923       .  S
C1015      C1016   1.411       .  A
C1016     Br1017   1.938       .  S
C1021      C1022   1.428       .  A
C1021      C1026   1.408       .  A
C1021     Br1028   1.928       .  S
C1022      C1023   1.432   1_556  A
C1023      C1024   1.421       .  A
C1023     Br1030   1.933       .  S
C1024      C1025   1.409   1_554  A
C1024     Br1029   1.931       .  S
C1025      C1026   1.405       .  A
C1026     Br1027   1.938       .  S
C1031      C1032   1.427       .  A
C1031      C1036   1.413       .  A
C1031     Br1038   1.931       .  S
C1032      C1033   1.427   1_556  A
C1033      C1034   1.413       .  A
C1033     Br1040   1.931       .  S
C1034      C1035   1.401   1_554  A
C1034     Br1039   1.920       .  S
C1035      C1036   1.406       .  A
C1036     Br1037   1.930       .  S
C1041      C1042   1.442       .  A
C1041      C1046   1.406       .  A
C1041     Br1048   1.936       .  S
C1042      C1043   1.455       .  A
C1043      C1044   1.413       .  A
C1043     Br1050   1.949       .  S
C1044      C1045   1.398       .  A
C1044     Br1049   1.936       .  S
C1045      C1046   1.399       .  A
C1046     Br1047   1.934       .  S
C1051      C1052   1.459       .  A
C1051      C1056   1.427       .  A
C1051     Br1058   1.954       .  S
C1052      C1053   1.415       .  A
C1053      C1054   1.393       .  A
C1053     Br1060   1.924       .  S
C1054      C1055   1.399       .  A
C1054     Br1059   1.918       .  S
C1055      C1056   1.414       .  A
C1056     Br1057   1.935       .  S
C1061      C1062   1.415       .  A
C1061      C1066   1.418       .  A
C1061     Br1068   1.937       .  S
C1062      C1063   1.395       .  A
C1063      C1064   1.397       .  A
C1063     Br1070   1.944       .  S
C1064      C1065   1.450       .  A
C1064     Br1069   1.931       .  S
C1065      C1066   1.451       .  A
C1066     Br1067   1.954       .  S
C1071      C1072   1.456       .  A
C1071      C1076   1.413       .  A
C1071     Br1078   1.926       .  S
C1072      C1073   1.454       .  A
C1073      C1074   1.406       .  A
C1073     Br1080   1.932       .  S
C1074      C1075   1.388       .  A
C1074     Br1079   1.941       .  S
C1075      C1076   1.390       .  A
C1076     Br1077   1.940       .  S
C1081      C1082   1.409       .  A
C1081      C1086   1.418       .  A
C1081     Br1088   1.933       .  S
C1082      C1083   1.403       .  A
C1083      C1084   1.406       .  A
C1083     Br1090   1.927       .  S
C1084      C1085   1.427       .  A
C1084     Br1089   1.932       .  S
C1085      C1086   1.430       .  A
C1086     Br1087   1.932       .  S
C1091      C1092   1.426       .  A
C1091      C1096   1.415       .  A
C1091     Br1098   1.931       .  S
C1092      C1093   1.426       .  A
C1093      C1094   1.407       .  A
C1093     Br1100   1.928       .  S
C1094      C1095   1.405       .  A
C1094     Br1099   1.934       .  S
C1095      C1096   1.412       .  A
C1096     Br1097   1.931       .  S
C1101      C1102   1.405       .  A
C1101      C1106   1.410       .  A
C1101     Br1108   1.936       .  S
C1102      C1103   1.412       .  A
C1103      C1104   1.417       .  A
C1103     Br1110   1.934       .  S
C1104      C1105   1.428       .  A
C1104     Br1109   1.931       .  S
C1105      C1106   1.430       .  A
C1106     Br1107   1.931       .  S
C1111      C1112   1.411       .  A
C1111      C1116   1.421       .  A
C1111     Br1118   1.933       .  S
C1112      C1113   1.404       .  A
C1113      C1114   1.406       .  A
C1113     Br1120   1.926       .  S
C1114      C1115   1.427       .  A
C1114     Br1119   1.932       .  S
C1115      C1116   1.431       .  A
C1116     Br1117   1.931   1_655  S
C1121      C1122   1.447       .  A
C1121      C1126   1.386       .  A
C1121     Br1128   1.934       .  S
C1122      C1123   1.444       .  A
C1123      C1124   1.412       .  A
C1123     Br1130   1.933       .  S
C1124      C1125   1.413       .  A
C1124     Br1129   1.934       .  S
C1125      C1126   1.392       .  A
C1126     Br1127   1.931       .  S
C1131      C1132   1.399       .  A
C1131      C1136   1.405       .  A
C1131     Br1138   1.931       .  S
C1132      C1133   1.391       .  A
C1133      C1134   1.403       .  A
C1133     Br1140   1.939       .  S
C1134      C1135   1.453       .  A
C1134     Br1139   1.933       .  S
C1135      C1136   1.446       .  A
C1136     Br1137   1.947       .  S
C1141      C1142   1.391       .  A
C1141      C1146   1.408       .  A
C1141     Br1148   1.938       .  S
C1142      C1143   1.397       .  A
C1143      C1144   1.416       .  A
C1143     Br1150   1.942       .  S
C1144      C1145   1.457       .  A
C1144     Br1149   1.943       .  S
C1145      C1146   1.454       .  A
C1146     Br1147   1.927       .  S
C1151      C1152   1.450       .  A
C1151      C1156   1.419       .  A
C1151     Br1158   1.930       .  S
C1152      C1153   1.459       .  A
C1153      C1154   1.410       .  A
C1153     Br1160   1.929       .  S
C1154      C1155   1.395       .  A
C1154     Br1159   1.951       .  S
C1155      C1156   1.409       .  A
C1156     Br1157   1.942       .  S
