geometry optimzed in LAMMPS
_audit_creation_date              2020-12-01 
_audit_creation_method            'lammps2cif' 
_symmetry_space_group_name_H-M    'P1' 
_symmetry_Int_Tables_number       1 
_symmetry_cell_setting            triclinic 
loop_ 
_symmetry_equiv_pos_as_xyz 
  x,y,z 
_cell_length_a                    49.47312935 
_cell_length_b                    49.477383036614626 
_cell_length_c                    29.751446785146978 
_cell_angle_alpha                 90.0002869191315 
_cell_angle_beta                  90.0014199996166 
_cell_angle_gamma                 120.01358854360008 
loop_ 
_atom_site_label 
_atom_site_type_symbol 
_atom_site_fract_x 
_atom_site_fract_y 
_atom_site_fract_z 
_atom_site_charge 
C1          C  0.24516941  0.49373838  0.78977135     0.81400
N2          N  0.27167610  0.49184483  0.78946587    -0.76900
C3          C  0.28476588  0.49037761  0.75026286     0.83800
N4          N  0.27165992  0.49183161  0.71106682    -0.76900
C5          C  0.24515234  0.49372407  0.71077713     0.83900
N6          N  0.23185049  0.49478381  0.75027809    -0.78600
C7          C  0.29708415  0.46651890  0.28978412     0.81400
N8          N  0.27057311  0.46840500  0.28947796    -0.76900
C9          C  0.25748152  0.46987106  0.25027512     0.83800
N10         N  0.27059153  0.46842521  0.21107947    -0.76900
C11         C  0.29710338  0.46653997  0.21078901     0.83900
N12         N  0.31040506  0.46547868  0.25029065    -0.78600
C13         C  0.23126767  0.20224445  0.21083559     0.81400
N14         N  0.25970836  0.22872039  0.21113126    -0.76900
C15         C  0.27427784  0.24182152  0.25030296     0.83800
N16         N  0.25971152  0.22871139  0.28947514    -0.76900
C17         C  0.23126949  0.20223298  0.28976436     0.83900
N18         N  0.21686465  0.18896582  0.25029735    -0.78600
C19         C  0.31094748  0.25795140  0.78975407     0.81400
N20         N  0.32535638  0.27121265  0.75028747    -0.76900
C21         C  0.31095002  0.25793558  0.71082464     0.83800
N22         N  0.28250312  0.23146822  0.71111937    -0.76900
C23         C  0.26793137  0.21837449  0.75029091     0.83900
N24         N  0.28249993  0.23148199  0.78946314    -0.78600
C25         C  0.00584926  0.18958295  0.78971063     0.81400
N26         N  0.00734088  0.21778184  0.78941535    -0.76900
C27         C  0.00853663  0.23212028  0.75022108     0.83800
N28         N  0.00729650  0.21777846  0.71100799    -0.76900
C29         C  0.00580837  0.18957993  0.71068142     0.83900
N30         N  0.00496326  0.17527596  0.75018874    -0.78600
C31         C  0.03633843  0.27057404  0.21068492     0.81400
N32         N  0.03485409  0.24237680  0.21100784    -0.76900
C33         C  0.03362537  0.22803772  0.25021895     0.83800
N34         N  0.03482741  0.24237779  0.28941524    -0.76900
C35         C  0.03631415  0.27057481  0.28971462     0.83900
N36         N  0.03719036  0.28487891  0.25019453    -0.78600
C37         C  0.04859247  0.48123226  0.25025427     0.81400
N38         N  0.04745506  0.00825921  0.25024023    -0.76900
C39         C  0.01934553  0.00728764  0.25024788     0.83800
N40         N  0.49251478  0.47915265  0.25027284    -0.76900
C41         C  0.49325629  0.45195123  0.25028535     0.83900
N42         N  0.02134469  0.45321438  0.25027537    -0.78600
C43         C  0.49363274  0.47896048  0.75026014     0.81400
N44         N  0.49476306  0.45193011  0.75025055    -0.76900
C45         C  0.02286856  0.45289354  0.75026500     0.83800
N46         N  0.04970437  0.48102520  0.75029147    -0.76900
C47         C  0.04897021  0.00823076  0.75029955     0.83900
N48         N  0.02088457  0.00697460  0.75028311    -0.78600
N49         N  0.43383492  0.06999420  0.08769317    -0.02300
C50         C  0.43620449  0.08105163  0.13037820     0.00300
C51         C  0.40736143  0.06666186  0.15104927    -0.22600
C52         C  0.38678363  0.04523856  0.12140596    -0.22800
C53         C  0.40337101  0.04680714  0.08323978     0.00200
H54         H  0.40249129  0.06864618  0.18600295     0.13900
H55         H  0.36303597  0.02761692  0.12910083     0.14000
O56         O  0.46405613  0.10964140  0.19408097    -0.77300
C57         C  0.46414567  0.09472713  0.34141994     0.83700
O58         O  0.05699524  0.19635493  0.25024779    -0.78500
O59         O  0.06019310  0.11443796  0.34112637    -0.79900
O60         O  0.01768774  0.04906053  0.21275008    -0.79700
O61         O  0.98449824  0.08640142  0.15332831    -0.78400
Zn62       Zn  0.99019264  0.12732422  0.25025580     1.55700
O63         O  0.01765269  0.04904054  0.28774103    -0.79800
Cd64       Cd  0.02031201  0.09166056  0.19588559     1.59700
Cd65       Cd  0.06340699  0.15784395  0.25028237     1.59600
O66         O  0.06022472  0.11447836  0.15940336    -0.79700
O67         O  0.02321257  0.11715106  0.25025895    -1.90300
Cd68       Cd  0.02028784  0.09164029  0.30461717     1.59900
O69         O  0.08896161  0.16039645  0.19389445    -0.79700
O70         O  0.98446352  0.08636677  0.34715041    -0.78400
C71         C  0.03194409  0.19767457  0.25024032     0.84200
C72         C  0.46419116  0.09477772  0.15904861     0.83800
O73         O  0.46401533  0.10960119  0.30639594    -0.77300
C74         C  0.01793851  0.03658307  0.25024511     0.84600
O75         O  0.00523203  0.17324213  0.25025721    -0.77400
C76         C  0.08455225  0.14110603  0.16248552     0.84800
C77         C  0.08451522  0.14107330  0.33808724     0.85100
O78         O  0.08892843  0.16038422  0.30670747    -0.79800
N79         N  0.43378433  0.06993125  0.41276671    -0.02300
C80         C  0.43615081  0.08097165  0.37007176     0.00300
C81         C  0.40730845  0.06656481  0.34939754    -0.22600
C82         C  0.38673407  0.04514997  0.37905403    -0.22800
C83         C  0.40332338  0.04673909  0.41723007     0.00200
H84         H  0.40243593  0.06853921  0.31444059     0.13900
H85         H  0.36298579  0.02752813  0.37137089     0.14000
N86         N  0.10836339  0.39018499  0.58773172    -0.02300
C87         C  0.10598081  0.37912616  0.63041871     0.00300
C88         C  0.13481370  0.39353004  0.65112179    -0.22600
C89         C  0.15539762  0.41496317  0.62149780    -0.22800
C90         C  0.13882454  0.41338496  0.58330926     0.00200
H91         H  0.13967017  0.39154691  0.68608284     0.13900
H92         H  0.17913727  0.43259274  0.62921538     0.14000
O93         O  0.07811399  0.35051512  0.69409226    -0.77300
C94         C  0.07803798  0.36543592  0.84141673     0.83700
O95         O  0.48517529  0.26380790  0.75025785    -0.78500
O96         O  0.48198885  0.34572920  0.84112872    -0.79900
O97         O  0.52450428  0.41110948  0.71276637    -0.79700
O98         O  0.05767784  0.37376238  0.65334248    -0.78400
Zn99       Zn  0.05197876  0.33283168  0.75026192     1.55700
O100        O  0.52454502  0.41113113  0.78775662    -0.79800
Cd101      Cd  0.52186612  0.36850354  0.69590058     1.59700
Cd102      Cd  0.47876909  0.30231934  0.75028758     1.59600
O103        O  0.48195301  0.34568780  0.65941930    -0.79700
O104        O  0.51896408  0.34301031  0.75026805    -1.90300
Cd105      Cd  0.52189404  0.36852291  0.80462554     1.59900
O106        O  0.45322177  0.29976128  0.69388888    -0.79700
O107        O  0.05771894  0.37379333  0.84715554    -0.78400
C108        C  0.51022408  0.26248485  0.75024692     0.84200
C109        C  0.07798402  0.36538507  0.65906494     0.83800
O110        O  0.07816263  0.35055863  0.80639344    -0.77300
C111        C  0.52426341  0.42359157  0.75026171     0.84600
O112        O  0.03693782  0.28691465  0.75026237    -0.77400
C113        C  0.45763083  0.31905530  0.66248663     0.84800
C114        C  0.45766488  0.31909536  0.83808762     0.85100
O115        O  0.45324777  0.29978335  0.80670704    -0.79800
N116        N  0.10842132  0.39025258  0.91274169    -0.02300
C117        C  0.10604286  0.37920491  0.87004847     0.00300
C118        C  0.13487566  0.39362084  0.84934901    -0.22600
C119        C  0.15545585  0.41504910  0.87898659    -0.22800
C120        C  0.13888004  0.41345759  0.91717792     0.00200
H121        H  0.13973485  0.39164298  0.81438733     0.13900
H122        H  0.17919730  0.43267932  0.87128225     0.14000
N123        N  0.34441030  0.39300489  0.58764901    -0.02300
C124        C  0.33694852  0.36247460  0.58272629     0.00300
C125        C  0.32337503  0.34604115  0.62158037    -0.22600
C126        C  0.32461866  0.36688329  0.65248617    -0.22800
C127        C  0.33807194  0.39563609  0.63163439     0.00200
H128        H  0.31720653  0.32222524  0.62865708     0.13900
H129        H  0.31927306  0.36215462  0.68790634     0.14000
O130        O  0.36780073  0.42208413  0.80582833    -0.77300
C131        C  0.35323276  0.42370458  0.66013256     0.83700
O132        O  0.46502307  0.00526368  0.75022899    -0.78500
O133        O  0.39496258  0.02393675  0.65687801    -0.79900
O134        O  0.32616478  0.98860139  0.78779954    -0.79700
O135        O  0.35022401  0.44735868  0.84782266    -0.78400
Zn136      Zn  0.39117025  0.44625042  0.75025658     1.55700
O137        O  0.32614350  0.98857311  0.71270829    -0.79800
Cd138      Cd  0.36535939  0.98577618  0.80565281     1.59700
Cd139      Cd  0.43152473  0.01796855  0.75022251     1.59600
O140        O  0.39501089  0.02398182  0.84357769    -0.79700
O141        O  0.38785687  0.98317729  0.75024465    -1.90300
Cd142      Cd  0.36533464  0.98574574  0.69484359     1.59900
O143        O  0.43997993  0.04458411  0.80567341    -0.79700
O144        O  0.35019196  0.44731269  0.65270629    -0.78400
C145        C  0.46348660  0.47890773  0.75024699     0.84200
C146        C  0.35325962  0.42374643  0.84040460     0.83800
O147        O  0.36778438  0.42205350  0.69470544    -0.77300
C148        C  0.31394568  0.98913235  0.75025622     0.84600
O149        O  0.43698426  0.45365450  0.75025770    -0.77400
C150        C  0.42380793  0.04410187  0.83908622     0.84800
C151        C  0.42376137  0.04405804  0.66134495     0.85100
O152        O  0.43994810  0.04455080  0.69474651    -0.79800
N153        N  0.34444215  0.39305332  0.91289505    -0.02300
C154        C  0.33698873  0.36252652  0.91781517     0.00300
C155        C  0.32341799  0.34608996  0.87896169    -0.22600
C156        C  0.32465279  0.36692811  0.84805731    -0.22800
C157        C  0.33810046  0.39568172  0.86890931     0.00200
H158        H  0.31725399  0.32227591  0.87188685     0.13900
H159        H  0.31930677  0.36219740  0.81263807     0.14000
N160        N  0.19779669  0.06717255  0.08764188    -0.02300
C161        C  0.20525928  0.09770211  0.08271394     0.00300
C162        C  0.21884654  0.11414265  0.12155932    -0.22600
C163        C  0.21761095  0.09330496  0.15246669    -0.22800
C164        C  0.20414792  0.06454814  0.13162344     0.00200
H165        H  0.22501632  0.13795917  0.12863263     0.13900
H166        H  0.22296595  0.09803909  0.18788311     0.14000
O167        O  0.17442440  0.03811570  0.30583570    -0.77300
C168        C  0.18898572  0.03648488  0.16012950     0.83700
O169        O  0.07720618  0.45493527  0.25023777    -0.78500
O170        O  0.14725071  0.43624573  0.15688989    -0.79900
O171        O  0.21606748  0.47161934  0.28781002    -0.79700
O172        O  0.19197961  0.51282656  0.34784149    -0.78400
Zn173      Zn  0.15105643  0.51395053  0.25025835     1.55700
O174        O  0.21608485  0.47164180  0.21271853    -0.79800
Cd175      Cd  0.17685809  0.47441809  0.30566101     1.59700
Cd176      Cd  0.11069844  0.44222481  0.25023090     1.59600
O177        O  0.14721173  0.43620394  0.34357829    -0.79700
O178        O  0.15436373  0.47701922  0.25025035    -1.90300
Cd179      Cd  0.17688042  0.47444563  0.19484909     1.59900
O180        O  0.10224103  0.41560595  0.30567670    -0.79700
O181        O  0.19201467  0.51287017  0.15270179    -0.78400
C182        C  0.07874087  0.48129043  0.25024725     0.84200
C183        C  0.18895432  0.03644425  0.34042046     0.83800
O184        O  0.17444352  0.03814527  0.19470636    -0.77300
C185        C  0.22829001  0.47109527  0.25026725     0.84600
O186        O  0.10524195  0.50654533  0.25025310    -0.77400
C187        C  0.11841385  0.41608477  0.33908706     0.84800
C188        C  0.11845088  0.41612673  0.16135654     0.85100
O189        O  0.10226699  0.41563871  0.19475697    -0.79800
N190        N  0.19774864  0.06711801  0.41291993    -0.02300
C191        C  0.20520316  0.09764436  0.41785326     0.00300
C192        C  0.21879277  0.11409140  0.37901537    -0.22600
C193        C  0.21756948  0.09326100  0.34810590    -0.22800
C194        C  0.20410913  0.06450154  0.36894025     0.00200
H195        H  0.22495887  0.13790811  0.37194844     0.13900
H196        H  0.22292972  0.09800074  0.31269209     0.14000
C197        C  0.35799466  0.17681310  0.53073796     0.04300
C198        C  0.32786781  0.15058918  0.52972439    -0.11900
C199        C  0.32373391  0.12048543  0.52944203     0.01800
C200        C  0.34996518  0.11657615  0.52817470    -0.10400
C201        C  0.38008313  0.14250982  0.52922894     0.04300
C202        C  0.38395440  0.17266036  0.52940464    -0.09800
H203        H  0.30765553  0.15355346  0.53242093     0.09900
H204        H  0.34693910  0.09333522  0.52976391     0.07400
H205        H  0.40715754  0.19286120  0.53182475     0.07200
O206        O  0.03636015  0.12364338  0.57830973    -0.77300
C207        C  0.99875661  0.17288964  0.66790409     0.83700
O208        O  0.42335478  0.07051614  0.59606063    -0.78500
O209        O  0.43020423  0.16045615  0.55835233    -0.79900
O210        O  0.01427389  0.19273503  0.48392184    -0.79700
O211        O  0.05185588  0.15743125  0.52173974    -0.78400
Zn212      Zn  0.49968461  0.12588288  0.60356262     1.55700
O213        O  0.00257682  0.20883188  0.54746407    -0.79800
Cd214      Cd  0.00648485  0.14757044  0.49912283     1.59700
Cd215      Cd  0.43908147  0.09920873  0.54161738     1.59600
O216        O  0.47853589  0.11310449  0.44719614    -0.79700
O217        O  0.48047450  0.13506367  0.55472938    -1.90300
Cd218      Cd  0.47292298  0.16801777  0.57589377     1.59900
O219        O  0.44291405  0.07445869  0.48934766    -0.79700
O220        O  0.48004003  0.17601042  0.64228689    -0.78400
C221        C  0.43931118  0.06785510  0.62736110     0.84200
C222        C  0.05809585  0.14619856  0.55652129     0.83800
O223        O  0.01117236  0.15664662  0.65654493    -0.77300
C224        C  0.01424755  0.21410971  0.50850875     0.84600
O225        O  0.46866800  0.08573102  0.63084746    -0.77400
C226        C  0.45407854  0.08561734  0.45088831     0.84800
C227        C  0.40713458  0.13847006  0.53805399     0.85100
O228        O  0.40669534  0.11329804  0.52709928    -0.79800
O229        O  0.03093384  0.30348324  0.34388385    -0.77300
C230        C  0.48406854  0.31392523  0.44399572     0.83700
O231        O  0.11880356  0.38961438  0.40436210    -0.78500
O232        O  0.06364775  0.34700222  0.55324203    -0.79900
O233        O  0.03958266  0.25128869  0.45283796    -0.79700
O234        O  0.06213746  0.28418944  0.35805219    -0.78400
Zn235      Zn  0.04246097  0.33425435  0.39686909     1.55700
O236        O  0.02793844  0.26738200  0.51643044    -0.79800
Cd237      Cd  0.06924136  0.29212366  0.42444914     1.59700
Cd238      Cd  0.10308939  0.36091048  0.45878933     1.59600
O239        O  0.11195299  0.29965545  0.44197243    -0.79700
O240        O  0.06169305  0.32506896  0.44567221    -1.90300
Cd241      Cd  0.03571016  0.31254609  0.50129733     1.59900
O242        O  0.13546596  0.34680596  0.47324635    -0.79700
O243        O  0.49033272  0.30269119  0.47875174    -0.78400
C244        C  0.10285132  0.39227939  0.37305891     0.84200
C245        C  0.04337985  0.28727603  0.33248021     0.83800
O246        O  0.00578835  0.33648229  0.42218465    -0.77300
C247        C  0.02794220  0.24600815  0.49181393     0.84600
O248        O  0.07349242  0.37440696  0.36956738    -0.77400
C249        C  0.13502260  0.32163504  0.46227868     0.84800
C250        C  0.08811021  0.37448824  0.54957475     0.85100
O251        O  0.09931290  0.38564653  0.51112857    -0.79800
O252        O  0.17936170  0.03318494  0.63148371    -0.77300
C253        C  0.15001329  0.44295616  0.55789778     0.83700
O254        O  0.25767539  0.01970473  0.64248029    -0.78500
O255        O  0.24029424  0.48657383  0.48426517    -0.79900
O256        O  0.19315613  0.05775479  0.48944256    -0.79700
O257        O  0.20935348  0.07813365  0.59580984    -0.78400
Zn258      Zn  0.18799950  0.00158665  0.60441297     1.55700
O259        O  0.19630469  0.02227978  0.44723657    -0.79800
Cd260      Cd  0.22171821  0.06160825  0.54172449     1.59700
Cd261      Cd  0.25672918  0.02765969  0.57638236     1.59600
O262        O  0.26804587  0.09366033  0.52695058    -0.79700
O263        O  0.21624266  0.02030460  0.55525906    -1.90300
Cd264      Cd  0.20285151  0.49438047  0.49955765     1.59900
O265        O  0.29179594  0.07055523  0.55922928    -0.79700
O266        O  0.16738630  0.44919265  0.52295629    -0.78400
C267        C  0.23573028  0.50126532  0.66817020     0.84200
C268        C  0.19097421  0.06255701  0.62751169     0.83800
O269        O  0.14913371  0.46462453  0.57978732    -0.77300
C270        C  0.19321144  0.04669577  0.45092565     0.84600
O271        O  0.20708715  0.48968947  0.65718685    -0.77400
C272        C  0.29277745  0.09340897  0.53840616     0.84800
C273        C  0.26185080  0.48676692  0.50870822     0.85100
O274        O  0.26822936  0.49841451  0.54763869    -0.79800
O275        O  0.39304144  0.49550978  0.42082388    -0.77300
C276        C  0.35122660  0.39761563  0.37306287     0.83700
O277        O  0.28452561  0.44053332  0.35807827    -0.78500
O278        O  0.27410445  0.36645483  0.47353109    -0.79900
O279        O  0.34585464  0.43784341  0.55332564    -0.79700
O280        O  0.37475747  0.01094567  0.47760385    -0.78400
Zn281      Zn  0.35417914  0.45856792  0.39616445     1.55700
O282        O  0.34896821  0.40234605  0.51112322    -0.79800
Cd283      Cd  0.33930021  0.46574918  0.50101533     1.59700
Cd284      Cd  0.28542981  0.43247877  0.42415095     1.59600
O285        O  0.30185148  0.47354364  0.51632681    -0.79700
O286        O  0.32591368  0.43983397  0.44530113    -1.90300
Cd287      Cd  0.32043743  0.39852633  0.45882132     1.59900
O288        O  0.27388078  0.46166064  0.45298275    -0.79700
O289        O  0.33283695  0.38202851  0.40474831    -0.78400
C290        C  0.30648448  0.45895457  0.33239254     0.84200
C291        C  0.39214292  0.01718016  0.44267566     0.83800
O292        O  0.36283254  0.42698620  0.36909853    -0.77300
C293        C  0.34893456  0.41341890  0.54963708     0.84600
O294        O  0.33512215  0.47048634  0.34337472    -0.77400
C295        C  0.28027413  0.47332423  0.49190288     0.84800
C296        C  0.24937786  0.36669486  0.46201294     0.85100
O297        O  0.25036852  0.38954878  0.44117687    -0.79800
C298        C  0.18415383  0.28328691  0.46972590     0.04300
C299        C  0.15819396  0.28744111  0.47099442    -0.11900
C300        C  0.16206890  0.31759213  0.47111359     0.01800
C301        C  0.19218611  0.34352489  0.47215922    -0.10400
C302        C  0.21841700  0.33961539  0.47094441     0.04300
C303        C  0.21428240  0.30951144  0.47072638    -0.09800
H304        H  0.13499061  0.26724057  0.46858047     0.09900
H305        H  0.19521253  0.36676528  0.47053595     0.07400
H306        H  0.23449586  0.30654514  0.46807833     0.07200
O307        O  0.41737282  0.32440191  0.63126337    -0.77300
C308        C  0.35527659  0.35148745  0.55669755     0.83700
O309        O  0.32395216  0.24471712  0.64292334    -0.78500
O310        O  0.30847058  0.26065247  0.48433993    -0.79900
O311        O  0.42645900  0.30664365  0.49047041    -0.79700
O312        O  0.42923228  0.29076043  0.59953711    -0.78400
Zn313      Zn  0.37649573  0.31435778  0.60422060     1.55700
O314        O  0.38830490  0.30466391  0.44810963    -0.79800
Cd315      Cd  0.40155554  0.27884421  0.54364078     1.59700
Cd316      Cd  0.33282442  0.24458167  0.57717031     1.59600
O317        O  0.38705055  0.23248917  0.52888136    -0.79700
O318        O  0.36613678  0.28501674  0.55593633    -1.90300
Cd319      Cd  0.35364789  0.29811970  0.49985497     1.59900
O320        O  0.34020574  0.20892810  0.56104795    -0.79700
O321        O  0.34372261  0.33361845  0.52234910    -0.78400
C322        C  0.32802757  0.26698160  0.66836281     0.84200
C323        C  0.43349866  0.31092796  0.62928187     0.83800
O324        O  0.37827493  0.35282892  0.57790324    -0.77300
C325        C  0.41560307  0.30726203  0.45191028     0.84600
O326        O  0.34571057  0.29553971  0.65733414    -0.77400
C327        C  0.36201279  0.20780308  0.54022293     0.84800
C328        C  0.28699448  0.23924291  0.50881696     0.85100
O329        O  0.29213907  0.23301580  0.54792959    -0.79800
O330        O  0.16387400  0.10728531  0.42264641    -0.77300
C331        C  0.10864575  0.14918509  0.37129315     0.83700
O332        O  0.21827518  0.21541318  0.35770344    -0.78500
O333        O  0.15510109  0.22761132  0.47167396    -0.79900
O334        O  0.15383958  0.15543454  0.55248307    -0.79700
O335        O  0.19839951  0.12646739  0.47824159    -0.78400
Zn336      Zn  0.16566517  0.14576091  0.39632133     1.55700
O337        O  0.11568797  0.15344534  0.51011193    -0.79800
Cd338      Cd  0.18848691  0.16196913  0.50073572     1.59700
Cd339      Cd  0.20934230  0.21551246  0.42343511     1.59600
O340        O  0.23366681  0.19941887  0.51629372    -0.79700
O341        O  0.17601270  0.17507931  0.44463858    -1.90300
Cd342      Cd  0.14059262  0.18124958  0.45694781     1.59900
O343        O  0.25000697  0.22707636  0.45272571    -0.79700
O344        O  0.11290095  0.16932994  0.40106912    -0.78400
C345        C  0.21418583  0.19316264  0.33222643     0.84200
C346        C  0.18686173  0.10861715  0.44387200     0.83800
O347        O  0.12478696  0.13572803  0.36927360    -0.77300
C348        C  0.12654408  0.15283915  0.54867578     0.84600
O349        O  0.19647091  0.16459934  0.34321035    -0.77400
C350        C  0.25514626  0.22083668  0.49183213     0.84800
C351        C  0.18013768  0.25229147  0.46030788     0.85100
O352        O  0.20194646  0.25115729  0.43950539    -0.79800
N353        N  0.11060443  0.15705587  0.58693166    -0.02300
C354        C  0.11979186  0.16354218  0.63088456     0.00300
C355        C  0.10460110  0.17707669  0.65180522    -0.22600
C356        C  0.08486738  0.17822931  0.62107801    -0.22800
C357        C  0.08755683  0.16456113  0.58220839     0.00200
H358        H  0.10537865  0.18253650  0.68720450     0.13900
H359        H  0.06717127  0.18431336  0.62836711     0.14000
O360        O  0.11686200  0.13420528  0.80628033    -0.77300
C361        C  0.13290140  0.14858936  0.65954174     0.83700
O362        O  0.10383981  0.03733533  0.75031363    -0.78500
O363        O  0.19193452  0.10737504  0.65668391    -0.79900
O364        O  0.22504849  0.17666474  0.78787091    -0.79700
O365        O  0.15968446  0.15186064  0.84841243    -0.78400
Zn366      Zn  0.11787011  0.11104489  0.75031402     1.55700
O367        O  0.22504342  0.17665755  0.71270975    -0.79800
Cd368      Cd  0.18329037  0.13716382  0.80597680     1.59700
Cd369      Cd  0.14971957  0.07127153  0.75030382     1.59600
O370        O  0.19195811  0.10740998  0.84390401    -0.79700
O371        O  0.15831387  0.11480209  0.75029815    -1.90300
Cd372      Cd  0.18327741  0.13714553  0.69460500     1.59900
O373        O  0.16764633  0.06264480  0.80558959    -0.79700
O374        O  0.15964364  0.15181658  0.65216531    -0.78400
C375        C  0.07888066  0.03854710  0.75031307     0.84200
C376        C  0.13294152  0.14863417  0.84105171     0.83800
O377        O  0.11684183  0.13418000  0.69433525    -0.77300
C378        C  0.23769001  0.18897597  0.75028969     0.84600
O379        O  0.07982311  0.06491542  0.75031718    -0.77400
C380        C  0.18318074  0.07858598  0.83920116     0.84800
C381        C  0.18315336  0.07854984  0.66139284     0.85100
O382        O  0.16762693  0.06261849  0.69501456    -0.79800
N383        N  0.11065971  0.15712882  0.91364126    -0.02300
C384        C  0.11986038  0.16361752  0.86969630    -0.01100
C385        C  0.10468739  0.17716644  0.84876393    -0.22600
C386        C  0.08495041  0.17832556  0.87947706    -0.22800
C387        C  0.08762091  0.16464657  0.91834833     0.00200
H388        H  0.10547265  0.18262470  0.81336220     0.13900
H389        H  0.06725724  0.18441276  0.87217101     0.14000
C390        C  0.35806239  0.17689905  0.96979501     0.04300
C391        C  0.32793552  0.15067291  0.97081303    -0.11900
C392        C  0.32380298  0.12056941  0.97104232     0.01800
C393        C  0.35003574  0.11666249  0.97225625    -0.10400
C394        C  0.38015242  0.14259636  0.97119216     0.04300
C395        C  0.38402436  0.17274709  0.97106219    -0.09800
H396        H  0.30772068  0.15363700  0.96816223     0.09900
H397        H  0.34701014  0.09342218  0.97063717     0.07400
H398        H  0.40722623  0.19294844  0.96863228     0.07200
O399        O  0.01125488  0.15669165  0.84388053    -0.77300
C400        C  0.05814528  0.14627397  0.94399095     0.83700
O401        O  0.42341404  0.07058002  0.90434919    -0.78500
O402        O  0.47856051  0.11318145  0.05323571    -0.79900
O403        O  0.00264199  0.20890011  0.95282090    -0.79700
O404        O  0.48003945  0.17597129  0.85805553    -0.78400
Zn405      Zn  0.49974909  0.12593063  0.89687081     1.55700
O406        O  0.01426733  0.19280425  0.01642773    -0.79800
Cd407      Cd  0.47296546  0.16805930  0.92445964     1.59700
Cd408      Cd  0.43912877  0.09927359  0.95878844     1.59600
O409        O  0.43026244  0.16053379  0.94202594    -0.79700
O410        O  0.48051957  0.13511680  0.94567262    -1.90300
Cd411      Cd  0.00650132  0.14764079  0.00129776     1.59900
O412        O  0.40675461  0.11337824  0.97328183    -0.79700
O413        O  0.05188041  0.15750487  0.97874964    -0.78400
C414        C  0.43936912  0.06790608  0.87305978     0.84200
C415        C  0.99879577  0.17288728  0.83247803     0.83800
O416        O  0.03642762  0.12371509  0.92217910    -0.77300
C417        C  0.01427311  0.21417993  0.99180378     0.84600
O418        O  0.46872942  0.08577068  0.86958091    -0.77400
C419        C  0.40719704  0.13855256  0.96233519     0.84800
C420        C  0.45410670  0.08569038  0.04955451     0.85100
O421        O  0.44292654  0.07452964  0.01109972    -0.79800
O422        O  0.00583669  0.33654531  0.07830481    -0.77300
C423        C  0.04339912  0.28727027  0.16791153     0.83700
O424        O  0.11884831  0.38967085  0.09606429    -0.78500
O425        O  0.11199199  0.29972502  0.05843772    -0.79900
O426        O  0.02793306  0.26745183  0.98391775    -0.79700
O427        O  0.49035027  0.30276283  0.02172502    -0.78400
Zn428      Zn  0.04250902  0.33430012  0.10357092     1.55700
O429        O  0.03963536  0.25135537  0.04745658    -0.79800
Cd430      Cd  0.03572257  0.31261811  0.99911892     1.59700
Cd431      Cd  0.10312292  0.36097192  0.04162692     1.59600
O432        O  0.06367683  0.34708429  0.94719333    -0.79700
O433        O  0.06172394  0.32512146  0.05473773    -1.90300
Cd434      Cd  0.06926650  0.29216304  0.07592059     1.59900
O435        O  0.09932621  0.38572366  0.98933032    -0.79700
O436        O  0.06211440  0.28414495  0.14230073    -0.78400
C437        C  0.10289581  0.39232803  0.12737300     0.84200
C438        C  0.48410413  0.31399312  0.05650412     0.83800
O439        O  0.03099884  0.30352758  0.15655199    -0.77300
C440        C  0.02796471  0.24607815  0.00850059     0.84600
O441        O  0.07353926  0.37444879  0.13086624    -0.77400
C442        C  0.08814277  0.37456701  0.95087663     0.84800
C443        C  0.13506246  0.32170405  0.03813459     0.85100
O444        O  0.13550222  0.34687095  0.02714912    -0.79800
O445        O  0.14918286  0.46469350  0.92077242    -0.77300
C446        C  0.19101705  0.06260507  0.87307524     0.83700
O447        O  0.25771677  0.01970965  0.85807985    -0.78500
O448        O  0.26811441  0.09373218  0.97359427    -0.79900
O449        O  0.19634911  0.02233212  0.05331936    -0.79700
O450        O  0.16744227  0.44924208  0.97756683    -0.78400
Zn451      Zn  0.18805334  0.00164426  0.89615165     1.55700
O452        O  0.19322717  0.05782400  0.01111745    -0.79800
Cd453      Cd  0.20290253  0.49443201  0.00099950     1.59700
Cd454      Cd  0.25679268  0.02772025  0.92416638     1.59600
O455        O  0.24034348  0.48662624  0.01630935    -0.79700
O456        O  0.21630651  0.02036333  0.94530214    -1.90300
Cd457      Cd  0.22178473  0.06166981  0.95884040     1.59900
O458        O  0.26831247  0.49850532  0.95296549    -0.79700
O459        O  0.20940487  0.07818807  0.90476666    -0.78400
C460        C  0.23576292  0.50129008  0.83238338     0.84200
C461        C  0.15006651  0.44301646  0.94262804     0.83800
O462        O  0.17940951  0.03323483  0.86910344    -0.77300
C463        C  0.19326641  0.04675491  0.04963173     0.84600
O464        O  0.20712332  0.48974509  0.84336078    -0.77400
C465        C  0.26191580  0.48683858  0.99188350     0.84800
C466        C  0.29284312  0.09348982  0.96209661     0.85100
O467        O  0.29185552  0.07063798  0.94125699    -0.79800
O468        O  0.36286027  0.42701994  0.13148947    -0.77300
C469        C  0.39218701  0.01722942  0.05784670     0.83700
O470        O  0.28456314  0.44054911  0.14250045    -0.78500
O471        O  0.30189125  0.47358367  0.98425095    -0.79900
O472        O  0.34899515  0.40238630  0.98942526    -0.79700
O473        O  0.33286868  0.38206780  0.09581779    -0.78400
Zn474      Zn  0.35422049  0.45861827  0.10441420     1.55700
O475        O  0.34588157  0.43788513  0.94722797    -0.79800
Cd476      Cd  0.32047771  0.39857453  0.04174371     1.59700
Cd477      Cd  0.28548071  0.43253581  0.07641821     1.59600
O478        O  0.27414474  0.36651684  0.02702822    -0.79700
O479        O  0.32596067  0.43988192  0.05527272    -1.90300
Cd480      Cd  0.33933526  0.46578256  0.99954905     1.59900
O481        O  0.25040771  0.38962248  0.05934290    -0.79700
O482        O  0.37480274  0.01097751  0.02291361    -0.78400
C483        C  0.30651615  0.45898582  0.16818324     0.84200
C484        C  0.35125044  0.39764769  0.12751669     0.83800
O485        O  0.39307856  0.49557119  0.07974752    -0.77300
C486        C  0.34896251  0.41346214  0.95091228     0.84600
O487        O  0.33515612  0.47054127  0.15719684    -0.77400
C488        C  0.24941843  0.36676534  0.03851810     0.84800
C489        C  0.28033511  0.47339196  0.00869066     0.85100
O490        O  0.27395866  0.46174994  0.04762396    -0.79800
C491        C  0.18419970  0.28335841  0.03083440     0.04300
C492        C  0.15824050  0.28751184  0.02949972    -0.11900
C493        C  0.16211374  0.31766294  0.02933517     0.01800
C494        C  0.19223101  0.34359631  0.02830266    -0.10400
C495        C  0.21846078  0.33968652  0.02957395     0.04300
C496        C  0.21432704  0.30958287  0.02984370    -0.09800
H497        H  0.13503651  0.26731136  0.03190147     0.09900
H498        H  0.19525715  0.36683785  0.02989531     0.07400
H499        H  0.23453970  0.30661848  0.03253740     0.07200
O500        O  0.37831800  0.35288852  0.92265393    -0.77300
C501        C  0.43353836  0.31098640  0.87129513     0.83700
O502        O  0.32393818  0.24476296  0.85769283    -0.78500
O503        O  0.38710623  0.23257672  0.97171296    -0.79900
O504        O  0.38834973  0.30474645  0.05246843    -0.79700
O505        O  0.34377046  0.33369419  0.97821462    -0.78400
Zn506      Zn  0.37652903  0.31441525  0.89633070     1.55700
O507        O  0.42651158  0.30676674  0.01009095    -0.79800
Cd508      Cd  0.35369382  0.29820192  0.00072685     1.59700
Cd509      Cd  0.33285406  0.24465380  0.92343621     1.59600
O510        O  0.30851884  0.26074679  0.01628252    -0.79700
O511        O  0.36617544  0.28509115  0.94464010    -1.90300
Cd512      Cd  0.40160189  0.27893152  0.95695222     1.59900
O513        O  0.29218153  0.23308677  0.95271399    -0.79700
O514        O  0.42927874  0.29083577  0.90106280    -0.78400
C515        C  0.32802708  0.26701626  0.83222028     0.84200
C516        C  0.35531955  0.35154966  0.94385388     0.83800
O517        O  0.41740661  0.32445357  0.86928819    -0.77300
C518        C  0.41565161  0.30735700  0.04865738     0.84600
O519        O  0.34573336  0.29557881  0.84321451    -0.77400
C520        C  0.28704067  0.23932708  0.99181983     0.84800
C521        C  0.36207237  0.20789059  0.96035298     0.85100
O522        O  0.34026135  0.20901536  0.93953722    -0.79800
O523        O  0.12482681  0.13577191  0.13129044    -0.77300
C524        C  0.18692070  0.10868289  0.05669936     0.83700
O525        O  0.21826499  0.21544988  0.14292612    -0.78500
O526        O  0.23371561  0.19950767  0.98433522    -0.79900
O527        O  0.11573938  0.15353653  0.99046773    -0.79700
O528        O  0.11294855  0.16939089  0.09953171    -0.78400
Zn529      Zn  0.16570431  0.14581024  0.10424434     1.55700
O530        O  0.15389206  0.15551199  0.94811325    -0.79800
Cd531      Cd  0.14063840  0.18132235  0.04365179     1.59700
Cd532      Cd  0.20937322  0.21557889  0.07718304     1.59600
O533        O  0.15514408  0.22768247  0.02892541    -0.79700
O534        O  0.17605546  0.17514621  0.05595307    -1.90300
Cd535      Cd  0.18854015  0.16204650  0.99986368     1.59900
O536        O  0.20198670  0.25123226  0.06110197    -0.79700
O537        O  0.19846416  0.12654742  0.02234586    -0.78400
C538        C  0.21418800  0.19318988  0.16837400     0.84200
C539        C  0.10868938  0.14923356  0.12928888     0.83800
O540        O  0.16392698  0.10734078  0.07791885    -0.77300
C541        C  0.12659757  0.15292115  0.95190951     0.84600
O542        O  0.19649754  0.16463026  0.15735627    -0.77400
C543        C  0.18018033  0.25236455  0.04028641     0.84800
C544        C  0.25519341  0.22092060  0.00880688     0.85100
O545        O  0.25005197  0.22715110  0.04791889    -0.79800
N546        N  0.43155000  0.30306701  0.41364228    -0.02300
C547        C  0.42234486  0.29656898  0.36969865     0.00300
C548        C  0.43751637  0.28301649  0.34877284    -0.22600
C549        C  0.45725843  0.28186628  0.37948662    -0.22800
C550        C  0.45459122  0.29555221  0.41835228     0.00200
H551        H  0.43672768  0.27755109  0.31337368     0.13900
H552        H  0.47494924  0.27577637  0.37218545     0.14000
O553        O  0.42534837  0.32597152  0.30626658    -0.77300
C554        C  0.40929686  0.31158976  0.15952132     0.83700
O555        O  0.43839177  0.42284855  0.25029960    -0.78500
O556        O  0.35028070  0.35282643  0.15669149    -0.79900
O557        O  0.31716444  0.28354122  0.28787711    -0.79700
O558        O  0.38253527  0.30834609  0.34840961    -0.78400
Zn559      Zn  0.42434885  0.34913612  0.25029696     1.55700
O560        O  0.31716370  0.28353862  0.21271662    -0.79800
Cd561      Cd  0.35893215  0.32304342  0.30596891     1.59700
Cd562      Cd  0.39251348  0.38892742  0.25029504     1.59600
O563        O  0.35027722  0.35280896  0.34388714    -0.79700
O564        O  0.38390895  0.34539287  0.25028824    -1.90300
Cd565      Cd  0.35893262  0.32304804  0.19460321     1.59900
O566        O  0.37460184  0.39757476  0.30558028    -0.79700
O567        O  0.38255597  0.30836969  0.15215473    -0.78400
C568        C  0.46334873  0.42163389  0.25029847     0.84200
C569        C  0.40927043  0.31155507  0.34104465     0.83800
O570        O  0.42536455  0.32599666  0.19431216    -0.77300
C571        C  0.30451880  0.27122446  0.25029859     0.84600
O572        O  0.46240451  0.39526444  0.25030221    -0.77400
C573        C  0.35906313  0.38163507  0.33918838     0.84800
C574        C  0.35907408  0.38165524  0.16139435     0.85100
O575        O  0.37461156  0.39758871  0.19500859    -0.79800
N576        N  0.43159289  0.30313536  0.08690730    -0.02300
C577        C  0.42239516  0.29663150  0.13085284     0.00300
C578        C  0.43757749  0.28308391  0.15176226    -0.22600
C579        C  0.45731591  0.28194055  0.12103506    -0.22800
C580        C  0.45463723  0.29562601  0.08217665     0.00200
H581        H  0.43679336  0.27761129  0.18715694     0.13900
H582        H  0.47500831  0.27584950  0.12832038     0.14000
C583        C  0.24516946  0.99373841  0.78977137     0.81400
N584        N  0.27167612  0.99184480  0.78946590    -0.76900
C585        C  0.28476589  0.99037760  0.75026287     0.83800
N586        N  0.27165993  0.99183156  0.71106682    -0.76900
C587        C  0.24515236  0.99372404  0.71077713     0.83900
N588        N  0.23185062  0.99478394  0.75027811    -0.78600
C589        C  0.29708413  0.96651887  0.28978413     0.81400
N590        N  0.27057313  0.96840502  0.28947798    -0.76900
C591        C  0.25748159  0.96987115  0.25027513     0.83800
N592        N  0.27059156  0.96842523  0.21107948    -0.76900
C593        C  0.29710339  0.96653995  0.21078902     0.83900
N594        N  0.31040505  0.96547865  0.25029067    -0.78600
C595        C  0.23126774  0.70224442  0.21083556     0.81400
N596        N  0.25970845  0.72872031  0.21113126    -0.76900
C597        C  0.27427788  0.74182147  0.25030297     0.83800
N598        N  0.25971150  0.72871137  0.28947515    -0.76900
C599        C  0.23126948  0.70223295  0.28976436     0.83900
N600        N  0.21686466  0.68896582  0.25029732    -0.78600
C601        C  0.31094747  0.75795137  0.78975410     0.81400
N602        N  0.32535635  0.77121264  0.75028751    -0.76900
C603        C  0.31094997  0.75793558  0.71082471     0.83800
N604        N  0.28250308  0.73146822  0.71111945    -0.76900
C605        C  0.26793133  0.71837448  0.75029099     0.83900
N606        N  0.28249990  0.73148197  0.78946321    -0.78600
C607        C  0.00584921  0.68958290  0.78971064     0.81400
N608        N  0.00734082  0.71778179  0.78941535    -0.76900
C609        C  0.00853672  0.73212029  0.75022107     0.83800
N610        N  0.00729660  0.71777847  0.71100798    -0.76900
C611        C  0.00580833  0.68957988  0.71068143     0.83900
N612        N  0.00496317  0.67527589  0.75018874    -0.78600
C613        C  0.03633855  0.77057412  0.21068495     0.81400
N614        N  0.03485422  0.74237687  0.21100784    -0.76900
C615        C  0.03362543  0.72803777  0.25021894     0.83800
N616        N  0.03482747  0.74237782  0.28941524    -0.76900
C617        C  0.03631410  0.77057480  0.28971464     0.83900
N618        N  0.03719030  0.78487889  0.25019455    -0.78600
C619        C  0.04859252  0.98123229  0.25025427     0.81400
N620        N  0.04745500  0.50825918  0.25024023    -0.76900
C621        C  0.01934547  0.50728761  0.25024786     0.83800
N622        N  0.49251480  0.97915270  0.25027284    -0.76900
C623        C  0.49325632  0.95195128  0.25028535     0.83900
N624        N  0.02134474  0.95321440  0.25027537    -0.78600
C625        C  0.49363277  0.97896046  0.75026014     0.81400
N626        N  0.49476310  0.95193009  0.75025055    -0.76900
C627        C  0.02286850  0.95289352  0.75026501     0.83800
N628        N  0.04970433  0.98102518  0.75029147    -0.76900
C629        C  0.04897024  0.50823077  0.75029955     0.83900
N630        N  0.02088460  0.50697461  0.75028311    -0.78600
N631        N  0.43383493  0.56999414  0.08769322    -0.02300
C632        C  0.43620447  0.58105162  0.13037821     0.00300
C633        C  0.40736140  0.56666190  0.15104926    -0.22600
C634        C  0.38678359  0.54523866  0.12140591    -0.22800
C635        C  0.40337100  0.54680713  0.08323982     0.00200
H636        H  0.40249125  0.56864621  0.18600295     0.13900
H637        H  0.36303584  0.52761701  0.12910077     0.14000
O638        O  0.46405604  0.60964138  0.19408097    -0.77300
C639        C  0.46414571  0.59472710  0.34141995     0.83700
O640        O  0.05699532  0.69635498  0.25024778    -0.78500
O641        O  0.06019306  0.61443799  0.34112639    -0.79900
O642        O  0.01768764  0.54906047  0.21275009    -0.79700
O643        O  0.98449824  0.58640141  0.15332832    -0.78400
Zn644      Zn  0.99019274  0.62732421  0.25025580     1.55700
O645        O  0.01765277  0.54904054  0.28774105    -0.79800
Cd646      Cd  0.02031194  0.59166053  0.19588559     1.59700
Cd647      Cd  0.06340708  0.65784393  0.25028237     1.59600
O648        O  0.06022465  0.61447833  0.15940335    -0.79700
O649        O  0.02321265  0.61715104  0.25025895    -1.90300
Cd650      Cd  0.02028778  0.59164026  0.30461717     1.59900
O651        O  0.08896157  0.66039643  0.19389441    -0.79700
O652        O  0.98446347  0.58636674  0.34715040    -0.78400
C653        C  0.03194417  0.69767463  0.25024031     0.84200
C654        C  0.46419110  0.59477770  0.15904863     0.83800
O655        O  0.46401538  0.60960116  0.30639595    -0.77300
C656        C  0.01793846  0.53658303  0.25024510     0.84600
O657        O  0.00523213  0.67324219  0.25025721    -0.77400
C658        C  0.08455220  0.64110599  0.16248551     0.84800
C659        C  0.08451517  0.64107335  0.33808726     0.85100
O660        O  0.08892840  0.66038425  0.30670746    -0.79800
N661        N  0.43378432  0.56993125  0.41276674    -0.02300
C662        C  0.43615083  0.58097164  0.37007176     0.00300
C663        C  0.40730848  0.56656477  0.34939756    -0.22600
C664        C  0.38673402  0.54514990  0.37905401    -0.22800
C665        C  0.40332340  0.54673907  0.41723008     0.00200
H666        H  0.40243593  0.56853915  0.31444037     0.13900
H667        H  0.36298616  0.52752839  0.37137104     0.14000
N668        N  0.10836341  0.89018494  0.58773168    -0.02300
C669        C  0.10598081  0.87912621  0.63041873     0.00300
C670        C  0.13481370  0.89353016  0.65112181    -0.22600
C671        C  0.15539765  0.91496318  0.62149775    -0.22800
C672        C  0.13882455  0.91338495  0.58330921     0.00200
H673        H  0.13967018  0.89154711  0.68608299     0.13900
H674        H  0.17913729  0.93259274  0.62921533     0.14000
O675        O  0.07811402  0.85051525  0.69409232    -0.77300
C676        C  0.07803796  0.86543588  0.84141676     0.83700
O677        O  0.48517523  0.76380793  0.75025785    -0.78500
O678        O  0.48198882  0.84572930  0.84112868    -0.79900
O679        O  0.52450438  0.91110952  0.71276636    -0.79700
O680        O  0.05767780  0.87376238  0.65334239    -0.78400
Zn681      Zn  0.05197883  0.83283168  0.75026192     1.55700
O682        O  0.52454512  0.91113113  0.78775662    -0.79800
Cd683      Cd  0.52186616  0.86850370  0.69590056     1.59700
Cd684      Cd  0.47876914  0.80231951  0.75028758     1.59600
O685        O  0.48195307  0.84568780  0.65941930    -0.79700
O686        O  0.51896410  0.84301046  0.75026803    -1.90300
Cd687      Cd  0.52189398  0.86852290  0.80462555     1.59900
O688        O  0.45322183  0.79976127  0.69388889    -0.79700
O689        O  0.05771896  0.87379333  0.84715557    -0.78400
C690        C  0.51022399  0.76248483  0.75024693     0.84200
C691        C  0.07798400  0.86538511  0.65906492     0.83800
O692        O  0.07816260  0.85055859  0.80639345    -0.77300
C693        C  0.52426350  0.92359157  0.75026171     0.84600
O694        O  0.03693786  0.78691465  0.75026235    -0.77400
C695        C  0.45763088  0.81905531  0.66248666     0.84800
C696        C  0.45766494  0.81909539  0.83808767     0.85100
O697        O  0.45324790  0.79978338  0.80670712    -0.79800
N698        N  0.10842132  0.89025253  0.91274169    -0.02300
C699        C  0.10604284  0.87920488  0.87004847     0.00300
C700        C  0.13487561  0.89362084  0.84934897    -0.22600
C701        C  0.15545576  0.91504905  0.87898655    -0.22800
C702        C  0.13888005  0.91345756  0.91717790     0.00200
H703        H  0.13973478  0.89164295  0.81438727     0.13900
H704        H  0.17919755  0.93267950  0.87128210     0.14000
N705        N  0.34441027  0.89300491  0.58764902    -0.02300
C706        C  0.33694849  0.86247462  0.58272631     0.00300
C707        C  0.32337503  0.84604116  0.62158037    -0.22600
C708        C  0.32461877  0.86688330  0.65248620    -0.22800
C709        C  0.33807201  0.89563609  0.63163442     0.00200
H710        H  0.31720646  0.82222506  0.62865712     0.13900
H711        H  0.31927323  0.86215467  0.68790637     0.14000
O712        O  0.36780078  0.92208408  0.80582835    -0.77300
C713        C  0.35323279  0.92370458  0.66013258     0.83700
O714        O  0.46502304  0.50526369  0.75022898    -0.78500
O715        O  0.39496265  0.52393682  0.65687802    -0.79900
O716        O  0.32616484  0.48860142  0.78779953    -0.79700
O717        O  0.35022408  0.94735868  0.84782264    -0.78400
Zn718      Zn  0.39117032  0.94625040  0.75025659     1.55700
O719        O  0.32614356  0.48857313  0.71270830    -0.79800
Cd720      Cd  0.36535946  0.48577621  0.80565281     1.59700
Cd721      Cd  0.43152476  0.51796872  0.75022250     1.59600
O722        O  0.39501093  0.52398185  0.84357766    -0.79700
O723        O  0.38785695  0.48317736  0.75024466    -1.90300
Cd724      Cd  0.36533472  0.48574577  0.69484359     1.59900
O725        O  0.43998000  0.54458408  0.80567348    -0.79700
O726        O  0.35019188  0.94731265  0.65270635    -0.78400
C727        C  0.46348662  0.97890772  0.75024700     0.84200
C728        C  0.35325964  0.92374639  0.84040458     0.83800
O729        O  0.36778447  0.92205353  0.69470541    -0.77300
C730        C  0.31394572  0.48913238  0.75025622     0.84600
O731        O  0.43698426  0.95365451  0.75025770    -0.77400
C732        C  0.42380800  0.54410184  0.83908625     0.84800
C733        C  0.42376143  0.54405813  0.66134495     0.85100
O734        O  0.43994816  0.54455099  0.69474656    -0.79800
N735        N  0.34444206  0.89305328  0.91289504    -0.02300
C736        C  0.33698872  0.86252652  0.91781514     0.00300
C737        C  0.32341805  0.84608996  0.87896165    -0.22600
C738        C  0.32465273  0.86692807  0.84805732    -0.22800
C739        C  0.33810038  0.89568167  0.86890931     0.00200
H740        H  0.31725413  0.82227594  0.87188681     0.13900
H741        H  0.31930670  0.86219735  0.81263809     0.14000
N742        N  0.19779676  0.56717258  0.08764185    -0.02300
C743        C  0.20525932  0.59770215  0.08271392     0.00300
C744        C  0.21884650  0.61414266  0.12155935    -0.22600
C745        C  0.21761086  0.59330494  0.15246672    -0.22800
C746        C  0.20414788  0.56454813  0.13162345     0.00200
H747        H  0.22501626  0.63795904  0.12863259     0.13900
H748        H  0.22296585  0.59803906  0.18788312     0.14000
O749        O  0.17442432  0.53811567  0.30583570    -0.77300
C750        C  0.18898564  0.53648486  0.16012949     0.83700
O751        O  0.07720624  0.95493533  0.25023777    -0.78500
O752        O  0.14725069  0.93624573  0.15688990    -0.79900
O753        O  0.21606744  0.97161931  0.28781000    -0.79700
O754        O  0.19197968  0.01282657  0.34784148    -0.78400
Zn755      Zn  0.15105650  0.01395056  0.25025835     1.55700
O756        O  0.21608489  0.97164178  0.21271851    -0.79800
Cd757      Cd  0.17685803  0.97441808  0.30566100     1.59700
Cd758      Cd  0.11069846  0.94222496  0.25023090     1.59600
O759        O  0.14721174  0.93620407  0.34357830    -0.79700
O760        O  0.15436371  0.97701924  0.25025035    -1.90300
Cd761      Cd  0.17688037  0.97444561  0.19484909     1.59900
O762        O  0.10224104  0.91560598  0.30567668    -0.79700
O763        O  0.19201474  0.01287019  0.15270180    -0.78400
C764        C  0.07874093  0.98129049  0.25024725     0.84200
C765        C  0.18895424  0.53644423  0.34042046     0.83800
O766        O  0.17444343  0.53814524  0.19470636    -0.77300
C767        C  0.22829004  0.97109528  0.25026725     0.84600
O768        O  0.10524201  0.00654537  0.25025310    -0.77400
C769        C  0.11841390  0.91608482  0.33908703     0.84800
C770        C  0.11845088  0.91612672  0.16135658     0.85100
O771        O  0.10226697  0.91563872  0.19475698    -0.79800
N772        N  0.19774856  0.56711798  0.41291993    -0.02300
C773        C  0.20520308  0.59764432  0.41785323     0.00300
C774        C  0.21879270  0.61409140  0.37901536    -0.22600
C775        C  0.21756940  0.59326097  0.34810589    -0.22800
C776        C  0.20410904  0.56450151  0.36894025     0.00200
H777        H  0.22495881  0.63790798  0.37194851     0.13900
H778        H  0.22292966  0.59800072  0.31269210     0.14000
C779        C  0.35799467  0.67681308  0.53073797     0.04300
C780        C  0.32786792  0.65058914  0.52972438    -0.11900
C781        C  0.32373394  0.62048541  0.52944203     0.01800
C782        C  0.34996521  0.61657609  0.52817470    -0.10400
C783        C  0.38008315  0.64250980  0.52922896     0.04300
C784        C  0.38395444  0.67266036  0.52940464    -0.09800
H785        H  0.30765506  0.65355350  0.53242100     0.09900
H786        H  0.34693916  0.59333542  0.52976390     0.07400
H787        H  0.40715746  0.69286111  0.53182474     0.07200
O788        O  0.03636022  0.62364335  0.57830974    -0.77300
C789        C  0.99875658  0.67288959  0.66790409     0.83700
O790        O  0.42335475  0.57051611  0.59606061    -0.78500
O791        O  0.43020424  0.66045612  0.55835229    -0.79900
O792        O  0.01427396  0.69273503  0.48392188    -0.79700
O793        O  0.05185594  0.65743121  0.52173973    -0.78400
Zn794      Zn  0.49968469  0.62588285  0.60356239     1.55700
O795        O  0.00257672  0.70883184  0.54746402    -0.79800
Cd796      Cd  0.00648480  0.64757041  0.49912284     1.59700
Cd797      Cd  0.43908156  0.59920870  0.54161737     1.59600
O798        O  0.47853585  0.61310449  0.44719613    -0.79700
O799        O  0.48047456  0.63506367  0.55472936    -1.90300
Cd800      Cd  0.47292293  0.66801774  0.57589377     1.59900
O801        O  0.44291416  0.57445863  0.48934767    -0.79700
O802        O  0.48003999  0.67601040  0.64228689    -0.78400
C803        C  0.43931119  0.56785511  0.62736105     0.84200
C804        C  0.05809591  0.64619852  0.55652127     0.83800
O805        O  0.01117238  0.65664663  0.65654491    -0.77300
C806        C  0.01424752  0.71410968  0.50850873     0.84600
O807        O  0.46866800  0.58573104  0.63084738    -0.77400
C808        C  0.45407858  0.58561731  0.45088830     0.84800
C809        C  0.40713458  0.63847003  0.53805400     0.85100
O810        O  0.40669532  0.61329799  0.52709929    -0.79800
O811        O  0.03093390  0.80348334  0.34388383    -0.77300
C812        C  0.48406851  0.81392528  0.44399572     0.83700
O813        O  0.11880367  0.88961440  0.40436202    -0.78500
O814        O  0.06364768  0.84700220  0.55324203    -0.79900
O815        O  0.03958257  0.75128865  0.45283791    -0.79700
O816        O  0.06213746  0.78418945  0.35805216    -0.78400
Zn817      Zn  0.04246094  0.83425437  0.39686909     1.55700
O818        O  0.02793851  0.76738200  0.51643049    -0.79800
Cd819      Cd  0.06924129  0.79212363  0.42444914     1.59700
Cd820      Cd  0.10308941  0.86091064  0.45878932     1.59600
O821        O  0.11195292  0.79965546  0.44197243    -0.79700
O822        O  0.06169309  0.82506898  0.44567222    -1.90300
Cd823      Cd  0.03571010  0.81254607  0.50129732     1.59900
O824        O  0.13546590  0.84680599  0.47324636    -0.79700
O825        O  0.49033267  0.80269119  0.47875171    -0.78400
C826        C  0.10285141  0.89227946  0.37305890     0.84200
C827        C  0.04337983  0.78727604  0.33248022     0.83800
O828        O  0.00578843  0.83648238  0.42218474    -0.77300
C829        C  0.02794216  0.74600812  0.49181392     0.84600
O830        O  0.07349249  0.87440713  0.36956747    -0.77400
C831        C  0.13502253  0.82163506  0.46227867     0.84800
C832        C  0.08811016  0.87448822  0.54957476     0.85100
O833        O  0.09931282  0.88564654  0.51112859    -0.79800
O834        O  0.17936181  0.53318499  0.63148370    -0.77300
C835        C  0.15001325  0.94295618  0.55789778     0.83700
O836        O  0.25767542  0.51970494  0.64248034    -0.78500
O837        O  0.24029417  0.98657379  0.48426516    -0.79900
O838        O  0.19315608  0.55775477  0.48944259    -0.79700
O839        O  0.20935348  0.57813373  0.59580980    -0.78400
Zn840      Zn  0.18799945  0.50158663  0.60441297     1.55700
O841        O  0.19630462  0.52227975  0.44723658    -0.79800
Cd842      Cd  0.22171830  0.56160824  0.54172449     1.59700
Cd843      Cd  0.25672920  0.52765985  0.57638236     1.59600
O844        O  0.26804593  0.59366032  0.52695052    -0.79700
O845        O  0.21624262  0.52030458  0.55525908    -1.90300
Cd846      Cd  0.20285146  0.99438047  0.49955765     1.59900
O847        O  0.29179596  0.57055524  0.55922931    -0.79700
O848        O  0.16738627  0.94919274  0.52295630    -0.78400
C849        C  0.23573025  0.00126519  0.66817018     0.84200
C850        C  0.19097421  0.56255704  0.62751164     0.83800
O851        O  0.14913365  0.96462454  0.57978736    -0.77300
C852        C  0.19321135  0.54669573  0.45092566     0.84600
O853        O  0.20708712  0.98968944  0.65718690    -0.77400
C854        C  0.29277750  0.59340896  0.53840614     0.84800
C855        C  0.26185075  0.98676688  0.50870820     0.85100
O856        O  0.26822930  0.99841444  0.54763866    -0.79800
O857        O  0.39304148  0.99550978  0.42082390    -0.77300
C858        C  0.35122660  0.89761561  0.37306286     0.83700
O859        O  0.28452563  0.94053324  0.35807827    -0.78500
O860        O  0.27410443  0.86645479  0.47353113    -0.79900
O861        O  0.34585456  0.93784340  0.55332562    -0.79700
O862        O  0.37475741  0.51094562  0.47760385    -0.78400
Zn863      Zn  0.35417909  0.95856790  0.39616444     1.55700
O864        O  0.34896816  0.90234602  0.51112323    -0.79800
Cd865      Cd  0.33930023  0.96574933  0.50101534     1.59700
Cd866      Cd  0.28542991  0.93247875  0.42415095     1.59600
O867        O  0.30185145  0.97354364  0.51632689    -0.79700
O868        O  0.32591368  0.93983397  0.44530118    -1.90300
Cd869      Cd  0.32043750  0.89852630  0.45882132     1.59900
O870        O  0.27388097  0.96166079  0.45298265    -0.79700
O871        O  0.33283689  0.88202848  0.40474824    -0.78400
C872        C  0.30648447  0.95895455  0.33239254     0.84200
C873        C  0.39214292  0.51718014  0.44267571     0.83800
O874        O  0.36283261  0.92698618  0.36909857    -0.77300
C875        C  0.34893449  0.91341889  0.54963708     0.84600
O876        O  0.33512213  0.97048636  0.34337471    -0.77400
C877        C  0.28027416  0.97332426  0.49190287     0.84800
C878        C  0.24937785  0.86669485  0.46201294     0.85100
O879        O  0.25036857  0.88954877  0.44117684    -0.79800
C880        C  0.18415380  0.78328691  0.46972587     0.04300
C881        C  0.15819385  0.78744107  0.47099441    -0.11900
C882        C  0.16206884  0.81759214  0.47111360     0.01800
C883        C  0.19218605  0.84352490  0.47215921    -0.10400
C884        C  0.21841695  0.83961539  0.47094441     0.04300
C885        C  0.21428228  0.80951145  0.47072639    -0.09800
H886        H  0.13499083  0.76724082  0.46858048     0.09900
H887        H  0.19521249  0.86676528  0.47053593     0.07400
H888        H  0.23449619  0.80654511  0.46807830     0.07200
O889        O  0.41737283  0.82440189  0.63126339    -0.77300
C890        C  0.35527660  0.85148754  0.55669758     0.83700
O891        O  0.32395213  0.74471707  0.64292350    -0.78500
O892        O  0.30847059  0.76065251  0.48433996    -0.79900
O893        O  0.42645897  0.80664365  0.49047049    -0.79700
O894        O  0.42923246  0.79076054  0.59953705    -0.78400
Zn895      Zn  0.37649567  0.81435777  0.60422060     1.55700
O896        O  0.38830487  0.80466391  0.44810968    -0.79800
Cd897      Cd  0.40155562  0.77884419  0.54364080     1.59700
Cd898      Cd  0.33282435  0.74458164  0.57717033     1.59600
O899        O  0.38705052  0.73248915  0.52888136    -0.79700
O900        O  0.36613675  0.78501674  0.55593631    -1.90300
Cd901      Cd  0.35364791  0.79811987  0.49985497     1.59900
O902        O  0.34020570  0.70892807  0.56104794    -0.79700
O903        O  0.34372263  0.83361861  0.52234907    -0.78400
C904        C  0.32802754  0.76698157  0.66836292     0.84200
C905        C  0.43349872  0.81092798  0.62928190     0.83800
O906        O  0.37827496  0.85282902  0.57790323    -0.77300
C907        C  0.41560302  0.80726199  0.45191035     0.84600
O908        O  0.34571050  0.79553967  0.65733415    -0.77400
C909        C  0.36201278  0.70780306  0.54022295     0.84800
C910        C  0.28699449  0.73924290  0.50881694     0.85100
O911        O  0.29213903  0.73301578  0.54792960    -0.79800
O912        O  0.16387396  0.60728529  0.42264648    -0.77300
C913        C  0.10864572  0.64918515  0.37129313     0.83700
O914        O  0.21827511  0.71541316  0.35770341    -0.78500
O915        O  0.15510116  0.72761132  0.47167397    -0.79900
O916        O  0.15383955  0.65543452  0.55248306    -0.79700
O917        O  0.19839953  0.62646738  0.47824157    -0.78400
Zn918      Zn  0.16566524  0.64576089  0.39632133     1.55700
O919        O  0.11568792  0.65344532  0.51011194    -0.79800
Cd920      Cd  0.18848685  0.66196911  0.50073571     1.59700
Cd921      Cd  0.20934224  0.71551244  0.42343511     1.59600
O922        O  0.23366680  0.69941890  0.51629366    -0.79700
O923        O  0.17601264  0.67507928  0.44463858    -1.90300
Cd924      Cd  0.14059255  0.68124955  0.45694782     1.59900
O925        O  0.25000699  0.72707652  0.45272575    -0.79700
O926        O  0.11290090  0.66932997  0.40106914    -0.78400
C927        C  0.21418578  0.69316262  0.33222642     0.84200
C928        C  0.18686169  0.60861712  0.44387201     0.83800
O929        O  0.12478692  0.63572805  0.36927361    -0.77300
C930        C  0.12654406  0.65283912  0.54867579     0.84600
O931        O  0.19647087  0.66459932  0.34321033    -0.77400
C932        C  0.25514627  0.72083673  0.49183210     0.84800
C933        C  0.18013771  0.75229148  0.46030786     0.85100
O934        O  0.20194651  0.75115732  0.43950540    -0.79800
N935        N  0.11060443  0.65705584  0.58693168    -0.02300
C936        C  0.11979182  0.66354214  0.63088460     0.00300
C937        C  0.10460107  0.67707666  0.65180523    -0.22600
C938        C  0.08486740  0.67822931  0.62107796    -0.22800
C939        C  0.08755687  0.66456112  0.58220836     0.00200
H940        H  0.10537858  0.68253646  0.68720455     0.13900
H941        H  0.06717127  0.68431337  0.62836702     0.14000
O942        O  0.11686207  0.63420524  0.80628030    -0.77300
C943        C  0.13290133  0.64858933  0.65954177     0.83700
O944        O  0.10383984  0.53733530  0.75031363    -0.78500
O945        O  0.19193441  0.60737500  0.65668390    -0.79900
O946        O  0.22504843  0.67666471  0.78787091    -0.79700
O947        O  0.15968447  0.65186063  0.84841247    -0.78400
Zn948      Zn  0.11787022  0.61104486  0.75031401     1.55700
O949        O  0.22504350  0.67665749  0.71270974    -0.79800
Cd950      Cd  0.18329030  0.63716380  0.80597680     1.59700
Cd951      Cd  0.14971968  0.57127150  0.75030383     1.59600
O952        O  0.19195806  0.60740997  0.84390403    -0.79700
O953        O  0.15831395  0.61480205  0.75029814    -1.90300
Cd954      Cd  0.18327735  0.63714552  0.69460500     1.59900
O955        O  0.16764646  0.56264478  0.80558957    -0.79700
O956        O  0.15964356  0.65181656  0.65216532    -0.78400
C957        C  0.07888071  0.53854708  0.75031308     0.84200
C958        C  0.13294154  0.64863414  0.84105170     0.83800
O959        O  0.11684176  0.63417997  0.69433527    -0.77300
C960        C  0.23769002  0.68897592  0.75028971     0.84600
O961        O  0.07982319  0.56491542  0.75031718    -0.77400
C962        C  0.18318083  0.57858599  0.83920114     0.84800
C963        C  0.18315332  0.57854981  0.66139282     0.85100
O964        O  0.16762701  0.56261845  0.69501459    -0.79800
N965        N  0.11065975  0.65712880  0.91364126    -0.02300
C966        C  0.11986039  0.66361747  0.86969628    -0.01100
C967        C  0.10468743  0.67716641  0.84876394    -0.22600
C968        C  0.08495042  0.67832552  0.87947705    -0.22800
C969        C  0.08762096  0.66464656  0.91834835     0.00200
H970        H  0.10547270  0.68262471  0.81336220     0.13900
H971        H  0.06725733  0.68441268  0.87217103     0.14000
C972        C  0.35806245  0.67689907  0.96979500     0.04300
C973        C  0.32793558  0.65067293  0.97081303    -0.11900
C974        C  0.32380299  0.62056940  0.97104231     0.01800
C975        C  0.35003573  0.61666248  0.97225625    -0.10400
C976        C  0.38015242  0.64259632  0.97119216     0.04300
C977        C  0.38402445  0.67274712  0.97106219    -0.09800
H978        H  0.30772071  0.65363702  0.96816223     0.09900
H979        H  0.34701005  0.59342197  0.97063715     0.07400
H980        H  0.40722604  0.69294818  0.96863232     0.07200
O981        O  0.01125489  0.65669160  0.84388049    -0.77300
C982        C  0.05814530  0.64627395  0.94399096     0.83700
O983        O  0.42341415  0.57057999  0.90434920    -0.78500
O984        O  0.47856044  0.61318143  0.05323570    -0.79900
O985        O  0.00264189  0.70890007  0.95282095    -0.79700
O986        O  0.48003942  0.67597122  0.85805550    -0.78400
Zn987      Zn  0.49974904  0.62593061  0.89687081     1.55700
O988        O  0.01426740  0.69280425  0.01642768    -0.79800
Cd989      Cd  0.47296555  0.66805928  0.92445964     1.59700
Cd990      Cd  0.43912886  0.59927357  0.95878843     1.59600
O991        O  0.43026244  0.66053376  0.94202594    -0.79700
O992        O  0.48051963  0.63511677  0.94567262    -1.90300
Cd993      Cd  0.00650125  0.64764076  0.00129775     1.59900
O994        O  0.40675461  0.61337820  0.97328181    -0.79700
O995        O  0.05188035  0.65750485  0.97874960    -0.78400
C996        C  0.43936922  0.56790604  0.87305980     0.84200
C997        C  0.99879580  0.67288726  0.83247804     0.83800
O998        O  0.03642769  0.62371504  0.92217910    -0.77300
C999        C  0.01427307  0.71417990  0.99180380     0.84600
O1000       O  0.46872951  0.58577064  0.86958090    -0.77400
C1001       C  0.40719703  0.63855252  0.96233518     0.84800
C1002       C  0.45410665  0.58569035  0.04955452     0.85100
O1003       O  0.44292646  0.57452961  0.01109975    -0.79800
O1004       O  0.00583677  0.83654525  0.07830482    -0.77300
C1005       C  0.04339916  0.78727034  0.16791155     0.83700
O1006       O  0.11884830  0.88967085  0.09606425    -0.78500
O1007       O  0.11199191  0.79972499  0.05843773    -0.79900
O1008       O  0.02793298  0.76745178  0.98391779    -0.79700
O1009       O  0.49035020  0.80276280  0.02172501    -0.78400
Zn1010     Zn  0.04250913  0.83430012  0.10357093     1.55700
O1011       O  0.03963544  0.75135535  0.04745652    -0.79800
Cd1012     Cd  0.03572264  0.81261808  0.99911892     1.59700
Cd1013     Cd  0.10312284  0.86097189  0.04162693     1.59600
O1014       O  0.06367682  0.84708429  0.94719334    -0.79700
O1015       O  0.06172391  0.82512143  0.05473772    -1.90300
Cd1016     Cd  0.06926643  0.79216302  0.07592059     1.59900
O1017       O  0.09932631  0.88572361  0.98933030    -0.79700
O1018       O  0.06211434  0.78414493  0.14230066    -0.78400
C1019       C  0.10289583  0.89232805  0.12737301     0.84200
C1020       C  0.48410408  0.81399309  0.05650411     0.83800
O1021       O  0.03099892  0.80352769  0.15655206    -0.77300
C1022       C  0.02796467  0.74607811  0.00850061     0.84600
O1023       O  0.07353930  0.87444885  0.13086624    -0.77400
C1024       C  0.08814282  0.87456697  0.95087665     0.84800
C1025       C  0.13506238  0.82170402  0.03813459     0.85100
O1026       O  0.13550214  0.84687092  0.02714913    -0.79800
O1027       O  0.14918280  0.96469348  0.92077243    -0.77300
C1028       C  0.19101715  0.56260509  0.87307523     0.83700
O1029       O  0.25771682  0.51970960  0.85807985    -0.78500
O1030       O  0.26811444  0.59373217  0.97359433    -0.79900
O1031       O  0.19634922  0.52233217  0.05331936    -0.79700
O1032       O  0.16744225  0.94924206  0.97756685    -0.78400
Zn1033     Zn  0.18805343  0.50164425  0.89615164     1.55700
O1034       O  0.19322716  0.55782397  0.01111741    -0.79800
Cd1035     Cd  0.20290261  0.99443199  0.00099951     1.59700
Cd1036     Cd  0.25679261  0.52772023  0.92416637     1.59600
O1037       O  0.24034346  0.98662620  0.01630939    -0.79700
O1038       O  0.21630646  0.52036330  0.94530215    -1.90300
Cd1039     Cd  0.22178482  0.56166979  0.95884041     1.59900
O1040       O  0.26831241  0.99850529  0.95296551    -0.79700
O1041       O  0.20940501  0.57818808  0.90476663    -0.78400
C1042       C  0.23576289  0.00129007  0.83238339     0.84200
C1043       C  0.15006651  0.94301645  0.94262801     0.83800
O1044       O  0.17940951  0.53323483  0.86910348    -0.77300
C1045       C  0.19326652  0.54675496  0.04963172     0.84600
O1046       O  0.20712327  0.98974506  0.84336076    -0.77400
C1047       C  0.26191577  0.98683855  0.99188352     0.84800
C1048       C  0.29284312  0.59348981  0.96209660     0.85100
O1049       O  0.29185546  0.57063795  0.94125696    -0.79800
O1050       O  0.36286022  0.92701992  0.13148949    -0.77300
C1051       C  0.39218696  0.51722940  0.05784675     0.83700
O1052       O  0.28456322  0.94054920  0.14250040    -0.78500
O1053       O  0.30189136  0.97358382  0.98425094    -0.79900
O1054       O  0.34899522  0.90238633  0.98942527    -0.79700
O1055       O  0.33286861  0.88206781  0.09581780    -0.78400
Zn1056     Zn  0.35422059  0.95861827  0.10441418     1.55700
O1057       O  0.34588149  0.93788507  0.94722798    -0.79800
Cd1058     Cd  0.32047775  0.89857469  0.04174370     1.59700
Cd1059     Cd  0.28548066  0.93253579  0.07641821     1.59600
O1060       O  0.27414479  0.86651687  0.02702826    -0.79700
O1061       O  0.32596064  0.93988196  0.05527274    -1.90300
Cd1062     Cd  0.33933533  0.96578253  0.99954905     1.59900
O1063       O  0.25040769  0.88962247  0.05934287    -0.79700
O1064       O  0.37480285  0.51097760  0.02291351    -0.78400
C1065       C  0.30651621  0.95898584  0.16818325     0.84200
C1066       C  0.35125037  0.89764768  0.12751672     0.83800
O1067       O  0.39307874  0.99557129  0.07974751    -0.77300
C1068       C  0.34896247  0.91346210  0.95091227     0.84600
O1069       O  0.33515619  0.97054129  0.15719687    -0.77400
C1070       C  0.24941845  0.86676534  0.03851808     0.84800
C1071       C  0.28033515  0.97339199  0.00869065     0.85100
O1072       O  0.27395872  0.96174993  0.04762392    -0.79800
C1073       C  0.18419965  0.78335839  0.03083442     0.04300
C1074       C  0.15824039  0.78751178  0.02949973    -0.11900
C1075       C  0.16211368  0.81766293  0.02933517     0.01800
C1076       C  0.19223096  0.84359630  0.02830266    -0.10400
C1077       C  0.21846076  0.83968652  0.02957394     0.04300
C1078       C  0.21432693  0.80958287  0.02984370    -0.09800
H1079       H  0.13503668  0.76731155  0.03190146     0.09900
H1080       H  0.19525710  0.86683783  0.02989531     0.07400
H1081       H  0.23454000  0.80661842  0.03253743     0.07200
O1082       O  0.37831796  0.85288849  0.92265391    -0.77300
C1083       C  0.43353836  0.81098639  0.87129513     0.83700
O1084       O  0.32393816  0.74476303  0.85769288    -0.78500
O1085       O  0.38710620  0.73257682  0.97171294    -0.79900
O1086       O  0.38834977  0.80474647  0.05246838    -0.79700
O1087       O  0.34377050  0.83369431  0.97821470    -0.78400
Zn1088     Zn  0.37652895  0.81441523  0.89633069     1.55700
O1089       O  0.42651167  0.80676677  0.01009098    -0.79800
Cd1090     Cd  0.35369376  0.79820191  0.00072686     1.59700
Cd1091     Cd  0.33285399  0.74465377  0.92343621     1.59600
O1092       O  0.30851888  0.76074673  0.01628254    -0.79700
O1093       O  0.36617536  0.78509115  0.94464011    -1.90300
Cd1094     Cd  0.40160191  0.77893169  0.95695222     1.59900
O1095       O  0.29218147  0.73308677  0.95271397    -0.79700
O1096       O  0.42927870  0.79083575  0.90106279    -0.78400
C1097       C  0.32802705  0.76701630  0.83222028     0.84200
C1098       C  0.35531956  0.85154970  0.94385388     0.83800
O1099       O  0.41740659  0.82445353  0.86928816    -0.77300
C1100       C  0.41565167  0.80735706  0.04865738     0.84600
O1101       O  0.34573330  0.79557886  0.84321447    -0.77400
C1102       C  0.28704067  0.73932706  0.99181985     0.84800
C1103       C  0.36207238  0.70789064  0.96035298     0.85100
O1104       O  0.34026130  0.70901533  0.93953725    -0.79800
O1105       O  0.12482683  0.63577194  0.13129045    -0.77300
C1106       C  0.18692075  0.60868297  0.05669935     0.83700
O1107       O  0.21826500  0.71544995  0.14292618    -0.78500
O1108       O  0.23371566  0.69950760  0.98433524    -0.79900
O1109       O  0.11573939  0.65353651  0.99046770    -0.79700
O1110       O  0.11294848  0.66939084  0.09953171    -0.78400
Zn1111     Zn  0.16570433  0.64581038  0.10424433     1.55700
O1112       O  0.15389210  0.65551195  0.94811327    -0.79800
Cd1113     Cd  0.14063831  0.68132233  0.04365179     1.59700
Cd1114     Cd  0.20937315  0.71557887  0.07718305     1.59600
O1115       O  0.15514403  0.72768246  0.02892546    -0.79700
O1116       O  0.17605539  0.67514622  0.05595305    -1.90300
Cd1117     Cd  0.18854010  0.66204650  0.99986369     1.59900
O1118       O  0.20198670  0.75123224  0.06110190    -0.79700
O1119       O  0.19846421  0.62654757  0.02234591    -0.78400
C1120       C  0.21418807  0.69318993  0.16837398     0.84200
C1121       C  0.10868934  0.64923352  0.12928888     0.83800
O1122       O  0.16392703  0.60734084  0.07791890    -0.77300
C1123       C  0.12659760  0.65292113  0.95190950     0.84600
O1124       O  0.19649754  0.66463033  0.15735624    -0.77400
C1125       C  0.18018030  0.75236453  0.04028641     0.84800
C1126       C  0.25519343  0.72092056  0.00880691     0.85100
O1127       O  0.25005193  0.72715109  0.04791888    -0.79800
N1128       N  0.43154995  0.80306697  0.41364234    -0.02300
C1129       C  0.42234479  0.79656893  0.36969871     0.00300
C1130       C  0.43751635  0.78301648  0.34877285    -0.22600
C1131       C  0.45725855  0.78186639  0.37948655    -0.22800
C1132       C  0.45459123  0.79555227  0.41835226     0.00200
H1133       H  0.43672761  0.77755103  0.31337375     0.13900
H1134       H  0.47494907  0.77577665  0.37218553     0.14000
O1135       O  0.42534839  0.82597149  0.30626660    -0.77300
C1136       C  0.40929682  0.81158975  0.15952131     0.83700
O1137       O  0.43839185  0.92284856  0.25029957    -0.78500
O1138       O  0.35028067  0.85282647  0.15669150    -0.79900
O1139       O  0.31716440  0.78354128  0.28787713    -0.79700
O1140       O  0.38253524  0.80834611  0.34840954    -0.78400
Zn1141     Zn  0.42434881  0.84913610  0.25029696     1.55700
O1142       O  0.31716374  0.78353856  0.21271664    -0.79800
Cd1143     Cd  0.35893217  0.82304357  0.30596890     1.59700
Cd1144     Cd  0.39251366  0.88892756  0.25029479     1.59600
O1145       O  0.35027733  0.85280898  0.34388721    -0.79700
O1146       O  0.38390901  0.84539291  0.25028820    -1.90300
Cd1147     Cd  0.35893257  0.82304803  0.19460321     1.59900
O1148       O  0.37460182  0.89757474  0.30558020    -0.79700
O1149       O  0.38255592  0.80836967  0.15215472    -0.78400
C1150       C  0.46334880  0.92163390  0.25029847     0.84200
C1151       C  0.40927040  0.81155504  0.34104465     0.83800
O1152       O  0.42536450  0.82599663  0.19431216    -0.77300
C1153       C  0.30451881  0.77122444  0.25029861     0.84600
O1154       O  0.46240458  0.89526444  0.25030220    -0.77400
C1155       C  0.35906317  0.88163507  0.33918837     0.84800
C1156       C  0.35907406  0.88165527  0.16139435     0.85100
O1157       O  0.37461166  0.89758877  0.19500850    -0.79800
N1158       N  0.43159290  0.80313536  0.08690730    -0.02300
C1159       C  0.42239517  0.79663152  0.13085283     0.00300
C1160       C  0.43757755  0.78308401  0.15176226    -0.22600
C1161       C  0.45731594  0.78194056  0.12103510    -0.22800
C1162       C  0.45463722  0.79562599  0.08217666     0.00200
H1163       H  0.43679341  0.77761138  0.18715712     0.13900
H1164       H  0.47500824  0.77584951  0.12832039     0.14000
C1165       C  0.74516945  0.49373838  0.78977137     0.81400
N1166       N  0.77167614  0.49184483  0.78946588    -0.76900
C1167       C  0.78476589  0.49037762  0.75026286     0.83800
N1168       N  0.77165993  0.49183161  0.71106682    -0.76900
C1169       C  0.74515235  0.49372405  0.71077714     0.83900
N1170       N  0.73185053  0.49478381  0.75027812    -0.78600
C1171       C  0.79708412  0.46651890  0.28978413     0.81400
N1172       N  0.77057310  0.46840500  0.28947798    -0.76900
C1173       C  0.75748151  0.46987106  0.25027513     0.83800
N1174       N  0.77059153  0.46842521  0.21107947    -0.76900
C1175       C  0.79710337  0.46653996  0.21078901     0.83900
N1176       N  0.81040503  0.46547867  0.25029066    -0.78600
C1177       C  0.73126771  0.20224443  0.21083557     0.81400
N1178       N  0.75970843  0.22872034  0.21113124    -0.76900
C1179       C  0.77427786  0.24182151  0.25030295     0.83800
N1180       N  0.75971151  0.22871140  0.28947513    -0.76900
C1181       C  0.73126951  0.20223297  0.28976435     0.83900
N1182       N  0.71686466  0.18896585  0.25029733    -0.78600
C1183       C  0.81094753  0.25795137  0.78975409     0.81400
N1184       N  0.82535643  0.27121262  0.75028749    -0.76900
C1185       C  0.81095002  0.25793560  0.71082468     0.83800
N1186       N  0.78250309  0.23146829  0.71111943    -0.76900
C1187       C  0.76793137  0.21837451  0.75029098     0.83900
N1188       N  0.78249998  0.23148196  0.78946320    -0.78600
C1189       C  0.50584923  0.18958293  0.78971063     0.81400
N1190       N  0.50734080  0.21778179  0.78941533    -0.76900
C1191       C  0.50853671  0.23212029  0.75022106     0.83800
N1192       N  0.50729662  0.21777849  0.71100798    -0.76900
C1193       C  0.50580844  0.18957994  0.71068143     0.83900
N1194       N  0.50496333  0.17527597  0.75018874    -0.78600
C1195       C  0.53633851  0.27057407  0.21068493     0.81400
N1196       N  0.53485418  0.24237683  0.21100785    -0.76900
C1197       C  0.53362536  0.22803771  0.25021895     0.83800
N1198       N  0.53482745  0.24237781  0.28941524    -0.76900
C1199       C  0.53631409  0.27057479  0.28971462     0.83900
N1200       N  0.53719027  0.28487887  0.25019453    -0.78600
C1201       C  0.54859247  0.48123224  0.25025427     0.81400
N1202       N  0.54745504  0.00825923  0.25024023    -0.76900
C1203       C  0.51934551  0.00728766  0.25024788     0.83800
N1204       N  0.99251477  0.47915265  0.25027277    -0.76900
C1205       C  0.99325630  0.45195124  0.25028519     0.83900
N1206       N  0.52134470  0.45321437  0.25027543    -0.78600
C1207       C  0.99363277  0.47896049  0.75026014     0.81400
N1208       N  0.99476309  0.45193011  0.75025055    -0.76900
C1209       C  0.52286852  0.45289354  0.75026500     0.83800
N1210       N  0.54970433  0.48102520  0.75029147    -0.76900
C1211       C  0.54897023  0.00823077  0.75029955     0.83900
N1212       N  0.52088458  0.00697459  0.75028311    -0.78600
N1213       N  0.93383491  0.06999414  0.08769320    -0.02300
C1214       C  0.93620447  0.08105158  0.13037821     0.00300
C1215       C  0.90736141  0.06666188  0.15104926    -0.22600
C1216       C  0.88678359  0.04523860  0.12140593    -0.22800
C1217       C  0.90337097  0.04680715  0.08323977     0.00200
H1218       H  0.90249127  0.06864623  0.18600289     0.13900
H1219       H  0.86303591  0.02761698  0.12910080     0.14000
O1220       O  0.96405607  0.10964140  0.19408096    -0.77300
C1221       C  0.96414570  0.09472713  0.34141995     0.83700
O1222       O  0.55699527  0.19635495  0.25024779    -0.78500
O1223       O  0.56019305  0.11443799  0.34112641    -0.79900
O1224       O  0.51768782  0.04906055  0.21275007    -0.79700
O1225       O  0.48449823  0.08640140  0.15332827    -0.78400
Zn1226     Zn  0.49019272  0.12732422  0.25025581     1.55700
O1227       O  0.51765277  0.04904056  0.28774104    -0.79800
Cd1228     Cd  0.52031193  0.09166055  0.19588559     1.59700
Cd1229     Cd  0.56340707  0.15784395  0.25028237     1.59600
O1230       O  0.56022465  0.11447837  0.15940334    -0.79700
O1231       O  0.52321265  0.11715107  0.25025896    -1.90300
Cd1232     Cd  0.52028777  0.09164028  0.30461717     1.59900
O1233       O  0.58896157  0.16039646  0.19389441    -0.79700
O1234       O  0.48446347  0.08636677  0.34715039    -0.78400
C1235       C  0.53194411  0.19767457  0.25024033     0.84200
C1236       C  0.96419114  0.09477772  0.15904862     0.83800
O1237       O  0.96401537  0.10960118  0.30639595    -0.77300
C1238       C  0.51793856  0.03658309  0.25024510     0.84600
O1239       O  0.50523207  0.17324210  0.25025721    -0.77400
C1240       C  0.58455221  0.14110602  0.16248552     0.84800
C1241       C  0.58451517  0.14107333  0.33808725     0.85100
O1242       O  0.58892838  0.16038424  0.30670747    -0.79800
N1243       N  0.93378431  0.06993128  0.41276674    -0.02300
C1244       C  0.93615082  0.08097167  0.37007177     0.00300
C1245       C  0.90730847  0.06656480  0.34939753    -0.22600
C1246       C  0.88673401  0.04514993  0.37905401    -0.22800
C1247       C  0.90332339  0.04673909  0.41723007     0.00200
H1248       H  0.90243594  0.06853912  0.31444052     0.13900
H1249       H  0.86298616  0.02752840  0.37137101     0.14000
N1250       N  0.60836340  0.39018498  0.58773169    -0.02300
C1251       C  0.60598079  0.37912618  0.63041872     0.00300
C1252       C  0.63481368  0.39353006  0.65112177    -0.22600
C1253       C  0.65539764  0.41496316  0.62149779    -0.22800
C1254       C  0.63882454  0.41338496  0.58330926     0.00200
H1255       H  0.63967015  0.39154690  0.68608301     0.13900
H1256       H  0.67913723  0.43259263  0.62921531     0.14000
O1257       O  0.57811396  0.35051513  0.69409225    -0.77300
C1258       C  0.57803795  0.36543591  0.84141676     0.83700
O1259       O  0.98517519  0.26380789  0.75025785    -0.78500
O1260       O  0.98198880  0.34572923  0.84112870    -0.79900
O1261       O  0.02450434  0.41110950  0.71276637    -0.79700
O1262       O  0.55767781  0.37376238  0.65334244    -0.78400
Zn1263     Zn  0.55197882  0.33283168  0.75026192     1.55700
O1264       O  0.02454509  0.41113115  0.78775662    -0.79800
Cd1265     Cd  0.02186605  0.36850354  0.69590058     1.59700
Cd1266     Cd  0.97876904  0.30231935  0.75028758     1.59600
O1267       O  0.98195306  0.34568779  0.65941927    -0.79700
O1268       O  0.01896407  0.34301032  0.75026805    -1.90300
Cd1269     Cd  0.02189396  0.36852290  0.80462554     1.59900
O1270       O  0.95322183  0.29976128  0.69388886    -0.79700
O1271       O  0.55771895  0.37379335  0.84715557    -0.78400
C1272       C  0.01022398  0.26248484  0.75024694     0.84200
C1273       C  0.57798399  0.36538507  0.65906492     0.83800
O1274       O  0.57816259  0.35055862  0.80639345    -0.77300
C1275       C  0.02426347  0.42359158  0.75026171     0.84600
O1276       O  0.53693793  0.28691466  0.75026236    -0.77400
C1277       C  0.95763089  0.31905529  0.66248661     0.84800
C1278       C  0.95766489  0.31909535  0.83808766     0.85100
O1279       O  0.95324783  0.29978334  0.80670710    -0.79800
N1280       N  0.60842131  0.39025256  0.91274169    -0.02300
C1281       C  0.60604283  0.37920491  0.87004847     0.00300
C1282       C  0.63487560  0.39362087  0.84934897    -0.22600
C1283       C  0.65545575  0.41504907  0.87898655    -0.22800
C1284       C  0.63888004  0.41345759  0.91717790     0.00200
H1285       H  0.63973477  0.39164298  0.81438727     0.13900
H1286       H  0.67919754  0.43267953  0.87128210     0.14000
N1287       N  0.84441027  0.39300489  0.58764901    -0.02300
C1288       C  0.83694848  0.36247459  0.58272626     0.00300
C1289       C  0.82337501  0.34604116  0.62158034    -0.22600
C1290       C  0.82461872  0.36688328  0.65248629    -0.22800
C1291       C  0.83807199  0.39563609  0.63163440     0.00200
H1292       H  0.81720644  0.32222506  0.62865711     0.13900
H1293       H  0.81927328  0.36215472  0.68790578     0.14000
O1294       O  0.86780077  0.42208411  0.80582835    -0.77300
C1295       C  0.85323276  0.42370458  0.66013258     0.83700
O1296       O  0.96502303  0.00526369  0.75022899    -0.78500
O1297       O  0.89496268  0.02393675  0.65687803    -0.79900
O1298       O  0.82616486  0.98860139  0.78779954    -0.79700
O1299       O  0.85022407  0.44735871  0.84782264    -0.78400
Zn1300     Zn  0.89117032  0.44625043  0.75025659     1.55700
O1301       O  0.82614349  0.98857311  0.71270830    -0.79800
Cd1302     Cd  0.86535948  0.98577618  0.80565281     1.59700
Cd1303     Cd  0.93152468  0.01796857  0.75022252     1.59600
O1304       O  0.89501090  0.02398188  0.84357768    -0.79700
O1305       O  0.88785692  0.98317729  0.75024465    -1.90300
Cd1306     Cd  0.86533472  0.98574574  0.69484360     1.59900
O1307       O  0.93998000  0.04458404  0.80567359    -0.79700
O1308       O  0.85019187  0.44731266  0.65270634    -0.78400
C1309       C  0.96348661  0.47890773  0.75024700     0.84200
C1310       C  0.85325963  0.42374642  0.84040458     0.83800
O1311       O  0.86778445  0.42205354  0.69470540    -0.77300
C1312       C  0.81394570  0.98913235  0.75025627     0.84600
O1313       O  0.93698426  0.45365451  0.75025770    -0.77400
C1314       C  0.92380798  0.04410185  0.83908631     0.84800
C1315       C  0.92376145  0.04405810  0.66134496     0.85100
O1316       O  0.93994820  0.04455095  0.69474654    -0.79800
N1317       N  0.84444208  0.39305330  0.91289505    -0.02300
C1318       C  0.83698876  0.36252654  0.91781515     0.00300
C1319       C  0.82341808  0.34608998  0.87896165    -0.22600
C1320       C  0.82465272  0.36692809  0.84805733    -0.22800
C1321       C  0.83810036  0.39568169  0.86890932     0.00200
H1322       H  0.81725412  0.32227595  0.87188680     0.13900
H1323       H  0.81930666  0.36219737  0.81263811     0.14000
N1324       N  0.69779676  0.06717257  0.08764185    -0.02300
C1325       C  0.70525927  0.09770211  0.08271392     0.00300
C1326       C  0.71884647  0.11414267  0.12155933    -0.22600
C1327       C  0.71761086  0.09330497  0.15246671    -0.22800
C1328       C  0.70414791  0.06454816  0.13162346     0.00200
H1329       H  0.72501622  0.13795906  0.12863255     0.13900
H1330       H  0.72296586  0.09803911  0.18788311     0.14000
O1331       O  0.67442430  0.03811569  0.30583570    -0.77300
C1332       C  0.68898575  0.03648489  0.16012952     0.83700
O1333       O  0.57720627  0.45493529  0.25023777    -0.78500
O1334       O  0.64725066  0.43624574  0.15688990    -0.79900
O1335       O  0.71606744  0.47161935  0.28780999    -0.79700
O1336       O  0.69197955  0.51282655  0.34784149    -0.78400
Zn1337     Zn  0.65105635  0.51395053  0.25025835     1.55700
O1338       O  0.71608487  0.47164180  0.21271851    -0.79800
Cd1339     Cd  0.67685801  0.47441809  0.30566100     1.59700
Cd1340     Cd  0.61069852  0.44222480  0.25023090     1.59600
O1341       O  0.64721177  0.43620390  0.34357824    -0.79700
O1342       O  0.65436368  0.47701924  0.25025036    -1.90300
Cd1343     Cd  0.67688036  0.47444563  0.19484910     1.59900
O1344       O  0.60224104  0.41560598  0.30567675    -0.79700
O1345       O  0.69201476  0.51287018  0.15270178    -0.78400
C1346       C  0.57874089  0.48129043  0.25024724     0.84200
C1347       C  0.68895422  0.03644424  0.34042045     0.83800
O1348       O  0.67444359  0.03814528  0.19470643    -0.77300
C1349       C  0.72829001  0.47109527  0.25026725     0.84600
O1350       O  0.60524192  0.50654535  0.25025309    -0.77400
C1351       C  0.61841388  0.41608475  0.33908705     0.84800
C1352       C  0.61845085  0.41612673  0.16135655     0.85100
O1353       O  0.60226695  0.41563870  0.19475696    -0.79800
N1354       N  0.69774854  0.06711796  0.41291993    -0.02300
C1355       C  0.70520308  0.09764432  0.41785325     0.00300
C1356       C  0.71879264  0.11409129  0.37901536    -0.22600
C1357       C  0.71756937  0.09326095  0.34810588    -0.22800
C1358       C  0.70410902  0.06450150  0.36894025     0.00200
H1359       H  0.72495888  0.13790845  0.37194833     0.13900
H1360       H  0.72292964  0.09800069  0.31269206     0.14000
C1361       C  0.85799470  0.17681312  0.53073799     0.04300
C1362       C  0.82786794  0.15058918  0.52972438    -0.11900
C1363       C  0.82373394  0.12048544  0.52944203     0.01800
C1364       C  0.84996520  0.11657611  0.52817471    -0.10400
C1365       C  0.88008315  0.14250982  0.52922896     0.04300
C1366       C  0.88395446  0.17266038  0.52940464    -0.09800
H1367       H  0.80765516  0.15355355  0.53242098     0.09900
H1368       H  0.84693914  0.09333543  0.52976390     0.07400
H1369       H  0.90715755  0.19286117  0.53182474     0.07200
O1370       O  0.53636021  0.12364338  0.57830975    -0.77300
C1371       C  0.49875660  0.17288962  0.66790410     0.83700
O1372       O  0.92335479  0.07051617  0.59606066    -0.78500
O1373       O  0.93020423  0.16045614  0.55835230    -0.79900
O1374       O  0.51427397  0.19273505  0.48392189    -0.79700
O1375       O  0.55185599  0.15743125  0.52173975    -0.78400
Zn1376     Zn  0.99968469  0.12588288  0.60356263     1.55700
O1377       O  0.50257674  0.20883187  0.54746402    -0.79800
Cd1378     Cd  0.50648494  0.14757044  0.49912283     1.59700
Cd1379     Cd  0.93908155  0.09920873  0.54161737     1.59600
O1380       O  0.97853584  0.11310451  0.44719613    -0.79700
O1381       O  0.98047455  0.13506369  0.55472942    -1.90300
Cd1382     Cd  0.97292293  0.16801777  0.57589377     1.59900
O1383       O  0.94291415  0.07445865  0.48934767    -0.79700
O1384       O  0.98004008  0.17601046  0.64228683    -0.78400
C1385       C  0.93931122  0.06785512  0.62736108     0.84200
C1386       C  0.55809593  0.14619855  0.55652129     0.83800
O1387       O  0.51117237  0.15664665  0.65654488    -0.77300
C1388       C  0.51424751  0.21410970  0.50850872     0.84600
O1389       O  0.96866805  0.08573100  0.63084739    -0.77400
C1390       C  0.95407857  0.08561733  0.45088830     0.84800
C1391       C  0.90713457  0.13847005  0.53805400     0.85100
O1392       O  0.90669531  0.11329802  0.52709929    -0.79800
O1393       O  0.53093378  0.30348322  0.34388389    -0.77300
C1394       C  0.98406853  0.31392524  0.44399575     0.83700
O1395       O  0.61880361  0.38961434  0.40436205    -0.78500
O1396       O  0.56364778  0.34700218  0.55324203    -0.79900
O1397       O  0.53958258  0.25128868  0.45283791    -0.79700
O1398       O  0.56213748  0.28418947  0.35805214    -0.78400
Zn1399     Zn  0.54246092  0.33425435  0.39686909     1.55700
O1400       O  0.52793850  0.26738202  0.51643048    -0.79800
Cd1401     Cd  0.56924143  0.29212366  0.42444913     1.59700
Cd1402     Cd  0.60308947  0.36091048  0.45878933     1.59600
O1403       O  0.61195295  0.29965545  0.44197245    -0.79700
O1404       O  0.56169310  0.32506896  0.44567220    -1.90300
Cd1405     Cd  0.53571010  0.31254609  0.50129733     1.59900
O1406       O  0.63546592  0.34680595  0.47324638    -0.79700
O1407       O  0.99033278  0.30269118  0.47875170    -0.78400
C1408       C  0.60285135  0.39227937  0.37305890     0.84200
C1409       C  0.54337981  0.28727602  0.33248022     0.83800
O1410       O  0.50578840  0.33648229  0.42218467    -0.77300
C1411       C  0.52794215  0.24600815  0.49181391     0.84600
O1412       O  0.57349243  0.37440700  0.36956742    -0.77400
C1413       C  0.63502255  0.32163503  0.46227870     0.84800
C1414       C  0.58811018  0.37448824  0.54957474     0.85100
O1415       O  0.59931283  0.38564655  0.51112855    -0.79800
O1416       O  0.67936175  0.03318496  0.63148373    -0.77300
C1417       C  0.65001330  0.44295615  0.55789775     0.83700
O1418       O  0.75767539  0.01970477  0.64248029    -0.78500
O1419       O  0.74029416  0.48657382  0.48426515    -0.79900
O1420       O  0.69315606  0.05775476  0.48944258    -0.79700
O1421       O  0.70935355  0.07813366  0.59580985    -0.78400
Zn1422     Zn  0.68799944  0.00158665  0.60441298     1.55700
O1423       O  0.69630476  0.02227982  0.44723659    -0.79800
Cd1424     Cd  0.72171830  0.06160826  0.54172448     1.59700
Cd1425     Cd  0.75672909  0.02765970  0.57638236     1.59600
O1426       O  0.76804592  0.09366035  0.52695052    -0.79700
O1427       O  0.71624260  0.02030459  0.55525906    -1.90300
Cd1428     Cd  0.70285144  0.49438047  0.49955765     1.59900
O1429       O  0.79179591  0.07055522  0.55922932    -0.79700
O1430       O  0.66738634  0.44919264  0.52295631    -0.78400
C1431       C  0.73573027  0.50126525  0.66817020     0.84200
C1432       C  0.69097422  0.06255701  0.62751165     0.83800
O1433       O  0.64913379  0.46462455  0.57978732    -0.77300
C1434       C  0.69321139  0.04669574  0.45092567     0.84600
O1435       O  0.70708715  0.48968950  0.65718691    -0.77400
C1436       C  0.79277748  0.09340897  0.53840616     0.84800
C1437       C  0.76185074  0.48676691  0.50870819     0.85100
O1438       O  0.76822928  0.49841451  0.54763866    -0.79800
O1439       O  0.89304147  0.49550978  0.42082388    -0.77300
C1440       C  0.85122659  0.39761563  0.37306285     0.83700
O1441       O  0.78452562  0.44053328  0.35807828    -0.78500
O1442       O  0.77410443  0.36645482  0.47353114    -0.79900
O1443       O  0.84585457  0.43784337  0.55332561    -0.79700
O1444       O  0.87475741  0.01094567  0.47760382    -0.78400
Zn1445     Zn  0.85417908  0.45856792  0.39616444     1.55700
O1446       O  0.84896833  0.40234609  0.51112323    -0.79800
Cd1447     Cd  0.83930013  0.46574918  0.50101534     1.59700
Cd1448     Cd  0.78542989  0.43247877  0.42415094     1.59600
O1449       O  0.80185144  0.47354365  0.51632687    -0.79700
O1450       O  0.82591366  0.43983397  0.44530115    -1.90300
Cd1451     Cd  0.82043750  0.39852633  0.45882133     1.59900
O1452       O  0.77388085  0.46166065  0.45298273    -0.79700
O1453       O  0.83283688  0.38202850  0.40474824    -0.78400
C1454       C  0.80648446  0.45895458  0.33239254     0.84200
C1455       C  0.89214292  0.01718016  0.44267569     0.83800
O1456       O  0.86283260  0.42698621  0.36909856    -0.77300
C1457       C  0.84893460  0.41341892  0.54963708     0.84600
O1458       O  0.83512212  0.47048639  0.34337471    -0.77400
C1459       C  0.78027413  0.47332424  0.49190287     0.84800
C1460       C  0.74937785  0.36669486  0.46201294     0.85100
O1461       O  0.75036856  0.38954879  0.44117684    -0.79800
C1462       C  0.68415381  0.28328691  0.46972589     0.04300
C1463       C  0.65819393  0.28744110  0.47099441    -0.11900
C1464       C  0.66206886  0.31759213  0.47111359     0.01800
C1465       C  0.69218607  0.34352487  0.47215922    -0.10400
C1466       C  0.71841697  0.33961540  0.47094440     0.04300
C1467       C  0.71428231  0.30951145  0.47072639    -0.09800
H1468       H  0.63499051  0.26724050  0.46858044     0.09900
H1469       H  0.69521255  0.36676551  0.47053593     0.07400
H1470       H  0.73449617  0.30654510  0.46807829     0.07200
O1471       O  0.91737286  0.32440190  0.63126336    -0.77300
C1472       C  0.85527658  0.35148746  0.55669755     0.83700
O1473       O  0.82395209  0.24471711  0.64292335    -0.78500
O1474       O  0.80847054  0.26065249  0.48433993    -0.79900
O1475       O  0.92645898  0.30664366  0.49047040    -0.79700
O1476       O  0.92923236  0.29076043  0.59953711    -0.78400
Zn1477     Zn  0.87649566  0.31435778  0.60422061     1.55700
O1478       O  0.88830486  0.30466391  0.44810961    -0.79800
Cd1479     Cd  0.90155561  0.27884421  0.54364079     1.59700
Cd1480     Cd  0.83282434  0.24458167  0.57717031     1.59600
O1481       O  0.88705052  0.23248918  0.52888136    -0.79700
O1482       O  0.86613674  0.28501674  0.55593632    -1.90300
Cd1483     Cd  0.85364782  0.29811970  0.49985497     1.59900
O1484       O  0.84020570  0.20892809  0.56104793    -0.79700
O1485       O  0.84372263  0.33361847  0.52234908    -0.78400
C1486       C  0.82802753  0.26698159  0.66836284     0.84200
C1487       C  0.93349871  0.31092795  0.62928188     0.83800
O1488       O  0.87827490  0.35282892  0.57790329    -0.77300
C1489       C  0.91560304  0.30726202  0.45191027     0.84600
O1490       O  0.84571050  0.29553970  0.65733414    -0.77400
C1491       C  0.86201279  0.20780308  0.54022296     0.84800
C1492       C  0.78699447  0.23924289  0.50881692     0.85100
O1493       O  0.79213903  0.23301581  0.54792959    -0.79800
O1494       O  0.66387398  0.10728532  0.42264648    -0.77300
C1495       C  0.60864574  0.14918515  0.37129311     0.83700
O1496       O  0.71827529  0.21541318  0.35770347    -0.78500
O1497       O  0.65510114  0.22761132  0.47167397    -0.79900
O1498       O  0.65383957  0.15543455  0.55248303    -0.79700
O1499       O  0.69839955  0.12646740  0.47824157    -0.78400
Zn1500     Zn  0.66566524  0.14576091  0.39632134     1.55700
O1501       O  0.61568792  0.15344534  0.51011195    -0.79800
Cd1502     Cd  0.68848685  0.16196913  0.50073571     1.59700
Cd1503     Cd  0.70934223  0.21551246  0.42343511     1.59600
O1504       O  0.73366685  0.19941883  0.51629371    -0.79700
O1505       O  0.67601262  0.17507930  0.44463857    -1.90300
Cd1506     Cd  0.64059254  0.18124957  0.45694782     1.59900
O1507       O  0.75000692  0.22707637  0.45272574    -0.79700
O1508       O  0.61290090  0.16932997  0.40106911    -0.78400
C1509       C  0.71418587  0.19316264  0.33222644     0.84200
C1510       C  0.68686172  0.10861715  0.44387201     0.83800
O1511       O  0.62478695  0.13572807  0.36927362    -0.77300
C1512       C  0.62654408  0.15283914  0.54867578     0.84600
O1513       O  0.69647087  0.16459934  0.34321031    -0.77400
C1514       C  0.75514626  0.22083664  0.49183209     0.84800
C1515       C  0.68013771  0.25229148  0.46030786     0.85100
O1516       O  0.70194650  0.25115733  0.43950539    -0.79800
N1517       N  0.61060448  0.15705588  0.58693168    -0.02300
C1518       C  0.61979188  0.16354220  0.63088459     0.00300
C1519       C  0.60460110  0.17707669  0.65180522    -0.22600
C1520       C  0.58486743  0.17822932  0.62107796    -0.22800
C1521       C  0.58755689  0.16456113  0.58220838     0.00200
H1522       H  0.60537859  0.18253645  0.68720450     0.13900
H1523       H  0.56717127  0.18431337  0.62836702     0.14000
O1524       O  0.61686206  0.13420527  0.80628030    -0.77300
C1525       C  0.63290135  0.14858935  0.65954177     0.83700
O1526       O  0.60383983  0.03733533  0.75031363    -0.78500
O1527       O  0.69193441  0.10737502  0.65668388    -0.79900
O1528       O  0.72504854  0.17666470  0.78787093    -0.79700
O1529       O  0.65968447  0.15186066  0.84841247    -0.78400
Zn1530     Zn  0.61787021  0.11104489  0.75031401     1.55700
O1531       O  0.72504349  0.17665754  0.71270976    -0.79800
Cd1532     Cd  0.68329030  0.13716382  0.80597681     1.59700
Cd1533     Cd  0.64971967  0.07127152  0.75030383     1.59600
O1534       O  0.69195804  0.10740997  0.84390404    -0.79700
O1535       O  0.65831394  0.11480208  0.75029814    -1.90300
Cd1536     Cd  0.68327734  0.13714554  0.69460500     1.59900
O1537       O  0.66764644  0.06264480  0.80558956    -0.79700
O1538       O  0.65964357  0.15181657  0.65216534    -0.78400
C1539       C  0.57888070  0.03854710  0.75031308     0.84200
C1540       C  0.63294153  0.14863417  0.84105170     0.83800
O1541       O  0.61684176  0.13417999  0.69433527    -0.77300
C1542       C  0.73769006  0.18897595  0.75028972     0.84600
O1543       O  0.57982318  0.06491544  0.75031718    -0.77400
C1544       C  0.68318081  0.07858599  0.83920114     0.84800
C1545       C  0.68315333  0.07854983  0.66139280     0.85100
O1546       O  0.66762701  0.06261849  0.69501458    -0.79800
N1547       N  0.61065974  0.15712883  0.91364126    -0.02300
C1548       C  0.61986038  0.16361750  0.86969628    -0.01100
C1549       C  0.60468742  0.17716644  0.84876394    -0.22600
C1550       C  0.58495041  0.17832555  0.87947705    -0.22800
C1551       C  0.58762095  0.16464658  0.91834834     0.00200
H1552       H  0.60547269  0.18262473  0.81336220     0.13900
H1553       H  0.56725732  0.18441270  0.87217103     0.14000
C1554       C  0.85806241  0.17689906  0.96979499     0.04300
C1555       C  0.82793556  0.15067293  0.97081303    -0.11900
C1556       C  0.82380298  0.12056942  0.97104231     0.01800
C1557       C  0.85003572  0.11666251  0.97225625    -0.10400
C1558       C  0.88015241  0.14259635  0.97119216     0.04300
C1559       C  0.88402443  0.17274714  0.97106219    -0.09800
H1560       H  0.80772068  0.15363703  0.96816223     0.09900
H1561       H  0.84701004  0.09342199  0.97063715     0.07400
H1562       H  0.90722601  0.19294820  0.96863232     0.07200
O1563       O  0.51125487  0.15669162  0.84388050    -0.77300
C1564       C  0.55814530  0.14627398  0.94399095     0.83700
O1565       O  0.92341414  0.07058003  0.90434922    -0.78500
O1566       O  0.97856043  0.11318146  0.05323570    -0.79900
O1567       O  0.50264188  0.20890010  0.95282095    -0.79700
O1568       O  0.98003941  0.17597126  0.85805549    -0.78400
Zn1569     Zn  0.99974903  0.12593064  0.89687080     1.55700
O1570       O  0.51426741  0.19280427  0.01642767    -0.79800
Cd1571     Cd  0.97296554  0.16805930  0.92445964     1.59700
Cd1572     Cd  0.93912885  0.09927360  0.95878843     1.59600
O1573       O  0.93026243  0.16053379  0.94202594    -0.79700
O1574       O  0.98051962  0.13511679  0.94567262    -1.90300
Cd1575     Cd  0.50650140  0.14764079  0.00129775     1.59900
O1576       O  0.90675460  0.11337822  0.97328181    -0.79700
O1577       O  0.55188039  0.15750489  0.97874959    -0.78400
C1578       C  0.93936920  0.06790607  0.87305982     0.84200
C1579       C  0.49879578  0.17288728  0.83247804     0.83800
O1580       O  0.53642768  0.12371507  0.92217910    -0.77300
C1581       C  0.51427306  0.21417992  0.99180380     0.84600
O1582       O  0.96872950  0.08577067  0.86958091    -0.77400
C1583       C  0.90719702  0.13855255  0.96233518     0.84800
C1584       C  0.95410664  0.08569037  0.04955451     0.85100
O1585       O  0.94292645  0.07452963  0.01109974    -0.79800
O1586       O  0.50583678  0.33654530  0.07830482    -0.77300
C1587       C  0.54339917  0.28727029  0.16791154     0.83700
O1588       O  0.61884828  0.38967088  0.09606424    -0.78500
O1589       O  0.61199190  0.29972502  0.05843772    -0.79900
O1590       O  0.52793297  0.26745180  0.98391779    -0.79700
O1591       O  0.99035019  0.30276283  0.02172501    -0.78400
Zn1592     Zn  0.54250910  0.33430011  0.10357093     1.55700
O1593       O  0.53963542  0.25135538  0.04745652    -0.79800
Cd1594     Cd  0.53572265  0.31261811  0.99911892     1.59700
Cd1595     Cd  0.60312283  0.36097191  0.04162693     1.59600
O1596       O  0.56367681  0.34708432  0.94719334    -0.79700
O1597       O  0.56172390  0.32512146  0.05473772    -1.90300
Cd1598     Cd  0.56926643  0.29216304  0.07592059     1.59900
O1599       O  0.59932630  0.38572364  0.98933030    -0.79700
O1600       O  0.56211446  0.28414499  0.14230073    -0.78400
C1601       C  0.60289579  0.39232803  0.12737300     0.84200
C1602       C  0.98410406  0.31399312  0.05650412     0.83800
O1603       O  0.53099883  0.30352754  0.15655197    -0.77300
C1604       C  0.52796466  0.24607813  0.00850061     0.84600
O1605       O  0.57353927  0.37444875  0.13086628    -0.77400
C1606       C  0.58814281  0.37456700  0.95087665     0.84800
C1607       C  0.63506237  0.32170405  0.03813459     0.85100
O1608       O  0.63550213  0.34687095  0.02714913    -0.79800
O1609       O  0.64918280  0.46469350  0.92077243    -0.77300
C1610       C  0.69101711  0.06260508  0.87307523     0.83700
O1611       O  0.75771684  0.01970964  0.85807985    -0.78500
O1612       O  0.76811442  0.09373219  0.97359433    -0.79900
O1613       O  0.69634920  0.02233216  0.05331935    -0.79700
O1614       O  0.66744223  0.44924209  0.97756685    -0.78400
Zn1615     Zn  0.68805341  0.00164426  0.89615164     1.55700
O1616       O  0.69322713  0.05782396  0.01111743    -0.79800
Cd1617     Cd  0.70290260  0.49443201  0.00099950     1.59700
Cd1618     Cd  0.75679261  0.02772025  0.92416638     1.59600
O1619       O  0.74034347  0.48662622  0.01630933    -0.79700
O1620       O  0.71630645  0.02036332  0.94530216    -1.90300
Cd1621     Cd  0.72178481  0.06166981  0.95884041     1.59900
O1622       O  0.76831253  0.49850533  0.95296553    -0.79700
O1623       O  0.70940498  0.07818807  0.90476663    -0.78400
C1624       C  0.73576294  0.50129007  0.83238339     0.84200
C1625       C  0.65006650  0.44301647  0.94262802     0.83800
O1626       O  0.67940948  0.03323482  0.86910348    -0.77300
C1627       C  0.69326647  0.04675492  0.04963173     0.84600
O1628       O  0.70712334  0.48974505  0.84336079    -0.77400
C1629       C  0.76191580  0.48683857  0.99188352     0.84800
C1630       C  0.79284311  0.09348984  0.96209660     0.85100
O1631       O  0.79185545  0.07063797  0.94125696    -0.79800
O1632       O  0.86286020  0.42701993  0.13148950    -0.77300
C1633       C  0.89218697  0.01722942  0.05784673     0.83700
O1634       O  0.78456319  0.44054907  0.14250045    -0.78500
O1635       O  0.80189125  0.47358367  0.98425092    -0.79900
O1636       O  0.84899520  0.40238634  0.98942527    -0.79700
O1637       O  0.83286859  0.38206780  0.09581781    -0.78400
Zn1638     Zn  0.85422057  0.45861827  0.10441419     1.55700
O1639       O  0.84588148  0.43788509  0.94722798    -0.79800
Cd1640     Cd  0.82047765  0.39857453  0.04174370     1.59700
Cd1641     Cd  0.78548079  0.43253580  0.07641821     1.59600
O1642       O  0.77414476  0.36651683  0.02702825    -0.79700
O1643       O  0.82596067  0.43988193  0.05527271    -1.90300
Cd1644     Cd  0.83933533  0.46578256  0.99954905     1.59900
O1645       O  0.75040771  0.38962247  0.05934287    -0.79700
O1646       O  0.87480278  0.01097751  0.02291354    -0.78400
C1647       C  0.80651617  0.45898581  0.16818324     0.84200
C1648       C  0.85125035  0.39764768  0.12751672     0.83800
O1649       O  0.89307866  0.49557120  0.07974746    -0.77300
C1650       C  0.84896247  0.41346212  0.95091228     0.84600
O1651       O  0.83515615  0.47054131  0.15719683    -0.77400
C1652       C  0.74941844  0.36676532  0.03851810     0.84800
C1653       C  0.78033513  0.47339196  0.00869068     0.85100
O1654       O  0.77395874  0.46174995  0.04762399    -0.79800
C1655       C  0.68419962  0.28335837  0.03083435     0.04300
C1656       C  0.65824037  0.28751180  0.02949973    -0.11900
C1657       C  0.66211369  0.31766295  0.02933516     0.01800
C1658       C  0.69223097  0.34359631  0.02830267    -0.10400
C1659       C  0.71846076  0.33968651  0.02957388     0.04300
C1660       C  0.71432691  0.30958285  0.02984348    -0.09800
H1661       H  0.63503667  0.26731159  0.03190150     0.09900
H1662       H  0.69525714  0.36683783  0.02989536     0.07400
H1663       H  0.73454006  0.30661836  0.03253713     0.07200
O1664       O  0.87831800  0.35288853  0.92265389    -0.77300
C1665       C  0.93353833  0.31098639  0.87129513     0.83700
O1666       O  0.82393828  0.24476298  0.85769282    -0.78500
O1667       O  0.88710616  0.23257673  0.97171296    -0.79900
O1668       O  0.88834976  0.30474646  0.05246842    -0.79700
O1669       O  0.84377054  0.33369419  0.97821464    -0.78400
Zn1670     Zn  0.87652894  0.31441525  0.89633069     1.55700
O1671       O  0.92651161  0.30676672  0.01009096    -0.79800
Cd1672     Cd  0.85369390  0.29820191  0.00072685     1.59700
Cd1673     Cd  0.83285413  0.24465379  0.92343621     1.59600
O1674       O  0.80851890  0.26074677  0.01628253    -0.79700
O1675       O  0.86617540  0.28509116  0.94464010    -1.90300
Cd1676     Cd  0.90160181  0.27893153  0.95695222     1.59900
O1677       O  0.79218150  0.23308681  0.95271395    -0.79700
O1678       O  0.92927867  0.29083575  0.90106281    -0.78400
C1679       C  0.82802708  0.26701626  0.83222030     0.84200
C1680       C  0.85531961  0.35154969  0.94385390     0.83800
O1681       O  0.91740657  0.32445356  0.86928816    -0.77300
C1682       C  0.91565163  0.30735700  0.04865739     0.84600
O1683       O  0.84573326  0.29557882  0.84321453    -0.77400
C1684       C  0.78704069  0.23932710  0.99181984     0.84800
C1685       C  0.86207233  0.20789059  0.96035298     0.85100
O1686       O  0.84026129  0.20901532  0.93953725    -0.79800
O1687       O  0.62482683  0.13577194  0.13129045    -0.77300
C1688       C  0.68692066  0.10868287  0.05669933     0.83700
O1689       O  0.71826494  0.21544988  0.14292615    -0.78500
O1690       O  0.73371566  0.19950763  0.98433524    -0.79900
O1691       O  0.61573938  0.15353653  0.99046770    -0.79700
O1692       O  0.61294850  0.16939086  0.09953172    -0.78400
Zn1693     Zn  0.66570425  0.14581024  0.10424433     1.55700
O1694       O  0.65389209  0.15551198  0.94811327    -0.79800
Cd1695     Cd  0.64063832  0.18132234  0.04365180     1.59700
Cd1696     Cd  0.70937314  0.21557890  0.07718305     1.59600
O1697       O  0.65514400  0.22768241  0.02892547    -0.79700
O1698       O  0.67605545  0.17514621  0.05595307    -1.90300
Cd1699     Cd  0.68854010  0.16204651  0.99986368     1.59900
O1700       O  0.70198667  0.25123225  0.06110189    -0.79700
O1701       O  0.69846409  0.12654742  0.02234584    -0.78400
C1702       C  0.71418802  0.19318988  0.16837398     0.84200
C1703       C  0.60868936  0.14923356  0.12928890     0.83800
O1704       O  0.66392698  0.10734078  0.07791892    -0.77300
C1705       C  0.62659759  0.15292115  0.95190951     0.84600
O1706       O  0.69649749  0.16463026  0.15735627    -0.77400
C1707       C  0.68018025  0.25236450  0.04028640     0.84800
C1708       C  0.75519342  0.22092059  0.00880691     0.85100
O1709       O  0.75005192  0.22715112  0.04791888    -0.79800
N1710       N  0.93155000  0.30306700  0.41364229    -0.02300
C1711       C  0.92234487  0.29656896  0.36969865     0.00300
C1712       C  0.93751642  0.28301649  0.34877283    -0.22600
C1713       C  0.95725852  0.28186627  0.37948663    -0.22800
C1714       C  0.95459122  0.29555220  0.41835232     0.00200
H1715       H  0.93672776  0.27755109  0.31337378     0.13900
H1716       H  0.97494895  0.27577651  0.37218566     0.14000
O1717       O  0.92534841  0.32597152  0.30626659    -0.77300
C1718       C  0.90929687  0.31158977  0.15952132     0.83700
O1719       O  0.93839181  0.42284854  0.25029957    -0.78500
O1720       O  0.85028059  0.35282642  0.15669151    -0.79900
O1721       O  0.81716439  0.28354127  0.28787713    -0.79700
O1722       O  0.88253530  0.30834610  0.34840959    -0.78400
Zn1723     Zn  0.92434881  0.34913612  0.25029696     1.55700
O1724       O  0.81716374  0.28353859  0.21271664    -0.79800
Cd1725     Cd  0.85893223  0.32304342  0.30596890     1.59700
Cd1726     Cd  0.89251356  0.38892741  0.25029479     1.59600
O1727       O  0.85027734  0.35280897  0.34388718    -0.79700
O1728       O  0.88390898  0.34539286  0.25028820    -1.90300
Cd1729     Cd  0.85893256  0.32304804  0.19460320     1.59900
O1730       O  0.87460181  0.39757474  0.30558018    -0.79700
O1731       O  0.88255598  0.30836969  0.15215472    -0.78400
C1732       C  0.96334877  0.42163389  0.25029842     0.84200
C1733       C  0.90927045  0.31155506  0.34104465     0.83800
O1734       O  0.92536454  0.32599667  0.19431218    -0.77300
C1735       C  0.80451880  0.27122447  0.25029860     0.84600
O1736       O  0.96240456  0.39526445  0.25030219    -0.77400
C1737       C  0.85906316  0.38163507  0.33918836     0.84800
C1738       C  0.85907402  0.38165524  0.16139435     0.85100
O1739       O  0.87461163  0.39758872  0.19500848    -0.79800
N1740       N  0.93159290  0.30313536  0.08690732    -0.02300
C1741       C  0.92239516  0.29663150  0.13085284     0.00300
C1742       C  0.93757747  0.28308390  0.15176225    -0.22600
C1743       C  0.95731592  0.28194056  0.12103509    -0.22800
C1744       C  0.95463721  0.29562600  0.08217667     0.00200
H1745       H  0.93679332  0.27761129  0.18715699     0.13900
H1746       H  0.97500826  0.27584956  0.12832039     0.14000
C1747       C  0.74516943  0.99373841  0.78977137     0.81400
N1748       N  0.77167608  0.99184479  0.78946594    -0.76900
C1749       C  0.78476588  0.99037759  0.75026296     0.83800
N1750       N  0.77165993  0.99183157  0.71106690    -0.76900
C1751       C  0.74515237  0.99372405  0.71077715     0.83900
N1752       N  0.73185059  0.99478394  0.75027809    -0.78600
C1753       C  0.79708416  0.96651891  0.28978413     0.81400
N1754       N  0.77057314  0.96840503  0.28947795    -0.76900
C1755       C  0.75748160  0.96987115  0.25027510     0.83800
N1756       N  0.77059158  0.96842523  0.21107947    -0.76900
C1757       C  0.79710341  0.96653995  0.21078903     0.83900
N1758       N  0.81040508  0.96547866  0.25029068    -0.78600
C1759       C  0.73126770  0.70224443  0.21083558     0.81400
N1760       N  0.75970839  0.72872036  0.21113126    -0.76900
C1761       C  0.77427785  0.74182148  0.25030296     0.83800
N1762       N  0.75971153  0.72871135  0.28947514    -0.76900
C1763       C  0.73126950  0.70223294  0.28976437     0.83900
N1764       N  0.71686467  0.68896579  0.25029734    -0.78600
C1765       C  0.81094752  0.75795139  0.78975411     0.81400
N1766       N  0.82535641  0.77121263  0.75028752    -0.76900
C1767       C  0.81095003  0.75793556  0.71082472     0.83800
N1768       N  0.78250314  0.73146819  0.71111945    -0.76900
C1769       C  0.76793139  0.71837445  0.75029098     0.83900
N1770       N  0.78249996  0.73148196  0.78946321    -0.78600
C1771       C  0.50584924  0.68958292  0.78971064     0.81400
N1772       N  0.50734075  0.71778176  0.78941534    -0.76900
C1773       C  0.50853661  0.73212025  0.75022107     0.83800
N1774       N  0.50729654  0.71777845  0.71100799    -0.76900
C1775       C  0.50580838  0.68957991  0.71068142     0.83900
N1776       N  0.50496329  0.67527595  0.75018874    -0.78600
C1777       C  0.53633845  0.77057409  0.21068493     0.81400
N1778       N  0.53485416  0.74237686  0.21100784    -0.76900
C1779       C  0.53362545  0.72803779  0.25021894     0.83800
N1780       N  0.53482746  0.74237783  0.28941523    -0.76900
C1781       C  0.53631412  0.77057482  0.28971463     0.83900
N1782       N  0.53719025  0.78487888  0.25019455    -0.78600
C1783       C  0.54859250  0.98123231  0.25025427     0.81400
N1784       N  0.54745501  0.50825916  0.25024023    -0.76900
C1785       C  0.51934548  0.50728760  0.25024788     0.83800
N1786       N  0.99251483  0.97915269  0.25027278    -0.76900
C1787       C  0.99325634  0.95195125  0.25028519     0.83900
N1788       N  0.52134472  0.95321444  0.25027543    -0.78600
C1789       C  0.99363273  0.97896047  0.75026014     0.81400
N1790       N  0.99476304  0.95193009  0.75025055    -0.76900
C1791       C  0.52286858  0.95289353  0.75026501     0.83800
N1792       N  0.54970438  0.98102520  0.75029147    -0.76900
C1793       C  0.54897020  0.50823077  0.75029955     0.83900
N1794       N  0.52088456  0.50697461  0.75028311    -0.78600
N1795       N  0.93383496  0.56999415  0.08769320    -0.02300
C1796       C  0.93620453  0.58105160  0.13037820     0.00300
C1797       C  0.90736148  0.56666188  0.15104928    -0.22600
C1798       C  0.88678371  0.54523868  0.12140592    -0.22800
C1799       C  0.90337104  0.54680712  0.08323983     0.00200
H1800       H  0.90249135  0.56864621  0.18600299     0.13900
H1801       H  0.86303561  0.52761680  0.12910088     0.14000
O1802       O  0.96405605  0.60964137  0.19408096    -0.77300
C1803       C  0.96414567  0.59472711  0.34141994     0.83700
O1804       O  0.55699531  0.69635496  0.25024778    -0.78500
O1805       O  0.56019317  0.61443799  0.34112639    -0.79900
O1806       O  0.51768776  0.54906050  0.21275008    -0.79700
O1807       O  0.48449819  0.58640139  0.15332831    -0.78400
Zn1808     Zn  0.49019266  0.62732422  0.25025580     1.55700
O1809       O  0.51765271  0.54904051  0.28774103    -0.79800
Cd1810     Cd  0.52031202  0.59166053  0.19588558     1.59700
Cd1811     Cd  0.56340701  0.65784393  0.25028238     1.59600
O1812       O  0.56022471  0.61447833  0.15940336    -0.79700
O1813       O  0.52321259  0.61715103  0.25025895    -1.90300
Cd1814     Cd  0.52028787  0.59164027  0.30461717     1.59900
O1815       O  0.58896160  0.66039642  0.19389445    -0.79700
O1816       O  0.48446353  0.58636675  0.34715041    -0.78400
C1817       C  0.53194417  0.69767464  0.25024031     0.84200
C1818       C  0.96419114  0.59477771  0.15904862     0.83800
O1819       O  0.96401535  0.60960117  0.30639594    -0.77300
C1820       C  0.51793849  0.53658302  0.25024510     0.84600
O1821       O  0.50523210  0.67324223  0.25025721    -0.77400
C1822       C  0.58455222  0.64110600  0.16248551     0.84800
C1823       C  0.58451527  0.64107335  0.33808725     0.85100
O1824       O  0.58892847  0.66038424  0.30670744    -0.79800
N1825       N  0.93378433  0.56993124  0.41276671    -0.02300
C1826       C  0.93615081  0.58097166  0.37007177     0.00300
C1827       C  0.90730845  0.56656479  0.34939755    -0.22600
C1828       C  0.88673408  0.54514993  0.37905403    -0.22800
C1829       C  0.90332339  0.54673907  0.41723007     0.00200
H1830       H  0.90243591  0.56853915  0.31444054     0.13900
H1831       H  0.86298580  0.52752808  0.37137091     0.14000
N1832       N  0.60836336  0.89018497  0.58773170    -0.02300
C1833       C  0.60598080  0.87912620  0.63041873     0.00300
C1834       C  0.63481371  0.89353013  0.65112179    -0.22600
C1835       C  0.65539757  0.91496315  0.62149772    -0.22800
C1836       C  0.63882452  0.91338496  0.58330921     0.00200
H1837       H  0.63967021  0.89154703  0.68608288     0.13900
H1838       H  0.67913760  0.93259298  0.62921537     0.14000
O1839       O  0.57811399  0.85051524  0.69409235    -0.77300
C1840       C  0.57803797  0.86543590  0.84141674     0.83700
O1841       O  0.98517525  0.76380789  0.75025785    -0.78500
O1842       O  0.98198888  0.84572926  0.84112870    -0.79900
O1843       O  0.02450429  0.91110951  0.71276636    -0.79700
O1844       O  0.55767782  0.87376239  0.65334240    -0.78400
Zn1845     Zn  0.55197876  0.83283167  0.75026193     1.55700
O1846       O  0.02454503  0.91113111  0.78775662    -0.79800
Cd1847     Cd  0.02186622  0.86850371  0.69590058     1.59700
Cd1848     Cd  0.97876922  0.80231950  0.75028758     1.59600
O1849       O  0.98195306  0.84568781  0.65941932    -0.79700
O1850       O  0.01896420  0.84301047  0.75026803    -1.90300
Cd1851     Cd  0.02189406  0.86852290  0.80462555     1.59900
O1852       O  0.95322181  0.79976128  0.69388890    -0.79700
O1853       O  0.55771893  0.87379330  0.84715554    -0.78400
C1854       C  0.01022404  0.76248483  0.75024693     0.84200
C1855       C  0.57798401  0.86538510  0.65906494     0.83800
O1856       O  0.57816262  0.85055860  0.80639345    -0.77300
C1857       C  0.02426339  0.92359155  0.75026172     0.84600
O1858       O  0.53693784  0.78691463  0.75026235    -0.77400
C1859       C  0.95763087  0.81905530  0.66248665     0.84800
C1860       C  0.95766494  0.81909540  0.83808763     0.85100
O1861       O  0.95324785  0.79978340  0.80670706    -0.79800
N1862       N  0.60842132  0.89025253  0.91274169    -0.02300
C1863       C  0.60604286  0.87920489  0.87004846     0.00300
C1864       C  0.63487566  0.89362081  0.84934902    -0.22600
C1865       C  0.65545586  0.91504906  0.87898659    -0.22800
C1866       C  0.63888004  0.91345756  0.91717792     0.00200
H1867       H  0.63973486  0.89164295  0.81438730     0.13900
H1868       H  0.67919731  0.93267929  0.87128224     0.14000
N1869       N  0.84441032  0.89300491  0.58764902    -0.02300
C1870       C  0.83694847  0.86247461  0.58272629     0.00300
C1871       C  0.82337504  0.84604116  0.62158039    -0.22600
C1872       C  0.82461871  0.86688330  0.65248618    -0.22800
C1873       C  0.83807198  0.89563610  0.63163439     0.00200
H1874       H  0.81720652  0.82222523  0.62865709     0.13900
H1875       H  0.81927311  0.86215466  0.68790631     0.14000
O1876       O  0.86780073  0.92208408  0.80582836    -0.77300
C1877       C  0.85323276  0.92370458  0.66013255     0.83700
O1878       O  0.96502303  0.50526369  0.75022899    -0.78500
O1879       O  0.89496261  0.52393685  0.65687807    -0.79900
O1880       O  0.82616477  0.48860141  0.78779954    -0.79700
O1881       O  0.85022404  0.94735868  0.84782264    -0.78400
Zn1882     Zn  0.89117025  0.94625039  0.75025659     1.55700
O1883       O  0.82614349  0.48857313  0.71270829    -0.79800
Cd1884     Cd  0.86535938  0.48577621  0.80565281     1.59700
Cd1885     Cd  0.93152483  0.51796871  0.75022250     1.59600
O1886       O  0.89501084  0.52398185  0.84357765    -0.79700
O1887       O  0.88785691  0.48317736  0.75024465    -1.90300
Cd1888     Cd  0.86533463  0.48574577  0.69484359     1.59900
O1889       O  0.93997992  0.54458408  0.80567348    -0.79700
O1890       O  0.85019184  0.94731265  0.65270635    -0.78400
C1891       C  0.96348658  0.97890772  0.75024700     0.84200
C1892       C  0.85325961  0.92374640  0.84040460     0.83800
O1893       O  0.86778442  0.92205353  0.69470540    -0.77300
C1894       C  0.81394567  0.48913238  0.75025622     0.84600
O1895       O  0.93698423  0.95365451  0.75025770    -0.77400
C1896       C  0.92380791  0.54410184  0.83908624     0.84800
C1897       C  0.92376140  0.54405813  0.66134496     0.85100
O1898       O  0.93994818  0.54455096  0.69474651    -0.79800
N1899       N  0.84444213  0.89305331  0.91289502    -0.02300
C1900       C  0.83698877  0.86252653  0.91781512     0.00300
C1901       C  0.82341800  0.84608995  0.87896166    -0.22600
C1902       C  0.82465264  0.86692807  0.84805735    -0.22800
C1903       C  0.83810034  0.89568169  0.86890934     0.00200
H1904       H  0.81725404  0.82227593  0.87188680     0.13900
H1905       H  0.81930657  0.86219736  0.81263813     0.14000
N1906       N  0.69779669  0.56717255  0.08764187    -0.02300
C1907       C  0.70525924  0.59770212  0.08271396     0.00300
C1908       C  0.71884651  0.61414264  0.12155933    -0.22600
C1909       C  0.71761085  0.59330494  0.15246669    -0.22800
C1910       C  0.70414792  0.56454813  0.13162343     0.00200
H1911       H  0.72501637  0.63795921  0.12863261     0.13900
H1912       H  0.72296585  0.59803907  0.18788323     0.14000
O1913       O  0.67442426  0.53811567  0.30583570    -0.77300
C1914       C  0.68898574  0.53648486  0.16012950     0.83700
O1915       O  0.57720622  0.95493534  0.25023778    -0.78500
O1916       O  0.64725069  0.93624569  0.15688995    -0.79900
O1917       O  0.71606750  0.97161932  0.28781002    -0.79700
O1918       O  0.69197961  0.01282657  0.34784148    -0.78400
Zn1919     Zn  0.65105643  0.01395056  0.25025835     1.55700
O1920       O  0.71608482  0.97164178  0.21271853    -0.79800
Cd1921     Cd  0.67685811  0.97441808  0.30566099     1.59700
Cd1922     Cd  0.61069853  0.94222495  0.25023090     1.59600
O1923       O  0.64721179  0.93620404  0.34357832    -0.79700
O1924       O  0.65436368  0.97701926  0.25025039    -1.90300
Cd1925     Cd  0.67688029  0.97444561  0.19484910     1.59900
O1926       O  0.60224111  0.91560599  0.30567665    -0.79700
O1927       O  0.69201468  0.01287016  0.15270173    -0.78400
C1928       C  0.57874089  0.98129050  0.25024724     0.84200
C1929       C  0.68895421  0.53644424  0.34042044     0.83800
O1930       O  0.67444351  0.53814523  0.19470635    -0.77300
C1931       C  0.72829003  0.97109528  0.25026724     0.84600
O1932       O  0.60524196  0.00654539  0.25025309    -0.77400
C1933       C  0.61841391  0.91608484  0.33908705     0.84800
C1934       C  0.61845087  0.91612672  0.16135656     0.85100
O1935       O  0.60226694  0.91563875  0.19475692    -0.79800
N1936       N  0.69774849  0.56711796  0.41291992    -0.02300
C1937       C  0.70520307  0.59764432  0.41785325     0.00300
C1938       C  0.71879267  0.61409139  0.37901535    -0.22600
C1939       C  0.71756945  0.59326098  0.34810591    -0.22800
C1940       C  0.70410901  0.56450151  0.36894024     0.00200
H1941       H  0.72495874  0.63790793  0.37194847     0.13900
H1942       H  0.72292979  0.59800074  0.31269215     0.14000
C1943       C  0.85799464  0.67681308  0.53073799     0.04300
C1944       C  0.82786787  0.65058916  0.52972438    -0.11900
C1945       C  0.82373388  0.62048542  0.52944203     0.01800
C1946       C  0.84996515  0.61657608  0.52817470    -0.10400
C1947       C  0.88008310  0.64250978  0.52922893     0.04300
C1948       C  0.88395440  0.67266033  0.52940464    -0.09800
H1949       H  0.80765511  0.65355352  0.53242098     0.09900
H1950       H  0.84693908  0.59333538  0.52976391     0.07400
H1951       H  0.90715752  0.69286115  0.53182475     0.07200
O1952       O  0.53636018  0.62364334  0.57830971    -0.77300
C1953       C  0.49875657  0.67288960  0.66790407     0.83700
O1954       O  0.92335471  0.57051615  0.59606066    -0.78500
O1955       O  0.93020417  0.66045612  0.55835233    -0.79900
O1956       O  0.51427392  0.69273500  0.48392184    -0.79700
O1957       O  0.55185591  0.65743123  0.52173974    -0.78400
Zn1958     Zn  0.99968463  0.62588285  0.60356262     1.55700
O1959       O  0.50257684  0.70883185  0.54746407    -0.79800
Cd1960     Cd  0.50648487  0.64757041  0.49912282     1.59700
Cd1961     Cd  0.93908148  0.59920870  0.54161738     1.59600
O1962       O  0.97853589  0.61310446  0.44719613    -0.79700
O1963       O  0.98047447  0.63506366  0.55472942    -1.90300
Cd1964     Cd  0.97292285  0.66801774  0.57589377     1.59900
O1965       O  0.94291408  0.57445866  0.48934766    -0.79700
O1966       O  0.98004003  0.67601040  0.64228685    -0.78400
C1967       C  0.93931116  0.56785511  0.62736107     0.84200
C1968       C  0.55809587  0.64619853  0.55652127     0.83800
O1969       O  0.51117234  0.65664661  0.65654482    -0.77300
C1970       C  0.51424758  0.71410968  0.50850875     0.84600
O1971       O  0.96866798  0.58573099  0.63084738    -0.77400
C1972       C  0.95407855  0.58561731  0.45088830     0.84800
C1973       C  0.90713455  0.63847002  0.53805399     0.85100
O1974       O  0.90669534  0.61329801  0.52709927    -0.79800
O1975       O  0.53093387  0.80348333  0.34388382    -0.77300
C1976       C  0.98406855  0.81392529  0.44399575     0.83700
O1977       O  0.61880359  0.88961440  0.40436203    -0.78500
O1978       O  0.56364770  0.84700216  0.55324203    -0.79900
O1979       O  0.53958268  0.75128866  0.45283796    -0.79700
O1980       O  0.56213742  0.78418944  0.35805219    -0.78400
Zn1981     Zn  0.54246100  0.83425437  0.39686909     1.55700
O1982       O  0.52793844  0.76738198  0.51643043    -0.79800
Cd1983     Cd  0.56924138  0.79212364  0.42444914     1.59700
Cd1984     Cd  0.60308949  0.86091064  0.45878933     1.59600
O1985       O  0.61195298  0.79965547  0.44197242    -0.79700
O1986       O  0.56169308  0.82506897  0.44567224    -1.90300
Cd1987     Cd  0.53571002  0.81254607  0.50129733     1.59900
O1988       O  0.63546596  0.84680600  0.47324635    -0.79700
O1989       O  0.99033274  0.80269118  0.47875169    -0.78400
C1990       C  0.60285135  0.89227949  0.37305892     0.84200
C1991       C  0.54337983  0.78727605  0.33248021     0.83800
O1992       O  0.50578841  0.83648237  0.42218473    -0.77300
C1993       C  0.52794223  0.74600813  0.49181394     0.84600
O1994       O  0.57349243  0.87440715  0.36956745    -0.77400
C1995       C  0.63502258  0.82163506  0.46227868     0.84800
C1996       C  0.58811011  0.87448823  0.54957476     0.85100
O1997       O  0.59931275  0.88564656  0.51112857    -0.79800
O1998       O  0.67936173  0.53318497  0.63148365    -0.77300
C1999       C  0.65001330  0.94295618  0.55789776     0.83700
O2000       O  0.75767541  0.51970476  0.64248026    -0.78500
O2001       O  0.74029414  0.98657379  0.48426515    -0.79900
O2002       O  0.69315612  0.55775478  0.48944257    -0.79700
O2003       O  0.70935352  0.57813373  0.59580987    -0.78400
Zn2004     Zn  0.68799954  0.50158664  0.60441297     1.55700
O2005       O  0.69630467  0.52227977  0.44723655    -0.79800
Cd2006     Cd  0.72171823  0.56160823  0.54172450     1.59700
Cd2007     Cd  0.75672913  0.52765985  0.57638236     1.59600
O2008       O  0.76804584  0.59366033  0.52695052    -0.79700
O2009       O  0.71624265  0.52030460  0.55525906    -1.90300
Cd2010     Cd  0.70285154  0.99438047  0.49955765     1.59900
O2011       O  0.79179587  0.57055524  0.55922931    -0.79700
O2012       O  0.66738637  0.94919272  0.52295632    -0.78400
C2013       C  0.73573027  0.00126518  0.66817017     0.84200
C2014       C  0.69097417  0.56255703  0.62751163     0.83800
O2015       O  0.64913372  0.96462454  0.57978736    -0.77300
C2016       C  0.69321135  0.54669573  0.45092565     0.84600
O2017       O  0.70708714  0.98968940  0.65718687    -0.77400
C2018       C  0.79277741  0.59340896  0.53840614     0.84800
C2019       C  0.76185069  0.98676687  0.50870822     0.85100
O2020       O  0.76822921  0.99841444  0.54763868    -0.79800
O2021       O  0.89304145  0.99550978  0.42082390    -0.77300
C2022       C  0.85122661  0.89761561  0.37306288     0.83700
O2023       O  0.78452562  0.94053333  0.35807827    -0.78500
O2024       O  0.77410445  0.86645479  0.47353109    -0.79900
O2025       O  0.84585465  0.93784342  0.55332560    -0.79700
O2026       O  0.87475746  0.51094561  0.47760387    -0.78400
Zn2027     Zn  0.85417916  0.95856790  0.39616444     1.55700
O2028       O  0.84896823  0.90234602  0.51112322    -0.79800
Cd2029     Cd  0.83930016  0.96574933  0.50101534     1.59700
Cd2030     Cd  0.78542984  0.93247876  0.42415095     1.59600
O2031       O  0.80185143  0.97354365  0.51632686    -0.79700
O2032       O  0.82591370  0.93983398  0.44530115    -1.90300
Cd2033     Cd  0.82043745  0.89852630  0.45882132     1.59900
O2034       O  0.77388089  0.96166079  0.45298268    -0.79700
O2035       O  0.83283697  0.88202848  0.40474832    -0.78400
C2036       C  0.80648449  0.95895463  0.33239258     0.84200
C2037       C  0.89214293  0.51718013  0.44267568     0.83800
O2038       O  0.86283256  0.92698617  0.36909854    -0.77300
C2039       C  0.84893458  0.91341890  0.54963707     0.84600
O2040       O  0.83512216  0.97048635  0.34337472    -0.77400
C2041       C  0.78027411  0.97332426  0.49190288     0.84800
C2042       C  0.74937786  0.86669483  0.46201294     0.85100
O2043       O  0.75036854  0.88954876  0.44117687    -0.79800
C2044       C  0.68415377  0.78328691  0.46972581     0.04300
C2045       C  0.65819392  0.78744112  0.47099442    -0.11900
C2046       C  0.66206887  0.81759215  0.47111362     0.01800
C2047       C  0.69218608  0.84352487  0.47215922    -0.10400
C2048       C  0.71841697  0.83961539  0.47094442     0.04300
C2049       C  0.71428237  0.80951143  0.47072638    -0.09800
H2050       H  0.63499050  0.76724055  0.46858044     0.09900
H2051       H  0.69521254  0.86676550  0.47053593     0.07400
H2052       H  0.73449570  0.80654515  0.46807834     0.07200
O2053       O  0.91737283  0.82440190  0.63126343    -0.77300
C2054       C  0.85527657  0.85148753  0.55669758     0.83700
O2055       O  0.82395221  0.74471708  0.64292352    -0.78500
O2056       O  0.80847062  0.76065249  0.48433995    -0.79900
O2057       O  0.92645890  0.80664366  0.49047050    -0.79700
O2058       O  0.92923239  0.79076054  0.59953703    -0.78400
Zn2059     Zn  0.87649574  0.81435778  0.60422060     1.55700
O2060       O  0.88830482  0.80466391  0.44810963    -0.79800
Cd2061     Cd  0.90155555  0.77884418  0.54364080     1.59700
Cd2062     Cd  0.83282428  0.74458165  0.57717033     1.59600
O2063       O  0.88705053  0.73248914  0.52888141    -0.79700
O2064       O  0.86613676  0.78501673  0.55593630    -1.90300
Cd2065     Cd  0.85364785  0.79811987  0.49985497     1.59900
O2066       O  0.84020567  0.70892809  0.56104788    -0.79700
O2067       O  0.84372264  0.83361861  0.52234905    -0.78400
C2068       C  0.82802754  0.76698158  0.66836290     0.84200
C2069       C  0.93349870  0.81092799  0.62928189     0.83800
O2070       O  0.87827491  0.85282902  0.57790329    -0.77300
C2071       C  0.91560297  0.80726198  0.45191034     0.84600
O2072       O  0.84571044  0.79553968  0.65733410    -0.77400
C2073       C  0.86201276  0.70780306  0.54022295     0.84800
C2074       C  0.78699452  0.73924292  0.50881696     0.85100
O2075       O  0.79213905  0.73301577  0.54792959    -0.79800
O2076       O  0.66387393  0.60728528  0.42264647    -0.77300
C2077       C  0.60864582  0.64918516  0.37129312     0.83700
O2078       O  0.71827522  0.71541316  0.35770345    -0.78500
O2079       O  0.65510108  0.72761131  0.47167391    -0.79900
O2080       O  0.65383956  0.65543453  0.55248307    -0.79700
O2081       O  0.69839950  0.62646736  0.47824157    -0.78400
Zn2082     Zn  0.66566518  0.64576089  0.39632134     1.55700
O2083       O  0.61568795  0.65344531  0.51011192    -0.79800
Cd2084     Cd  0.68848693  0.66196911  0.50073573     1.59700
Cd2085     Cd  0.70934233  0.71551245  0.42343511     1.59600
O2086       O  0.73366686  0.69941889  0.51629365    -0.79700
O2087       O  0.67601273  0.67507929  0.44463858    -1.90300
Cd2088     Cd  0.64059265  0.68124956  0.45694782     1.59900
O2089       O  0.75000706  0.72707652  0.45272575    -0.79700
O2090       O  0.61290100  0.66932996  0.40106914    -0.78400
C2091       C  0.71418581  0.69316262  0.33222643     0.84200
C2092       C  0.68686168  0.60861713  0.44387199     0.83800
O2093       O  0.62478699  0.63572804  0.36927360    -0.77300
C2094       C  0.62654406  0.65283912  0.54867578     0.84600
O2095       O  0.69647080  0.66459932  0.34321030    -0.77400
C2096       C  0.75514631  0.72083676  0.49183213     0.84800
C2097       C  0.68013763  0.75229147  0.46030773     0.85100
O2098       O  0.70194644  0.75115729  0.43950533    -0.79800
N2099       N  0.61060442  0.65705585  0.58693166    -0.02300
C2100       C  0.61979182  0.66354217  0.63088457     0.00300
C2101       C  0.60460103  0.67707666  0.65180523    -0.22600
C2102       C  0.58486735  0.67822928  0.62107796    -0.22800
C2103       C  0.58755682  0.66456111  0.58220837     0.00200
H2104       H  0.60537852  0.68253644  0.68720442     0.13900
H2105       H  0.56717119  0.68431335  0.62836703     0.14000
O2106       O  0.61686202  0.63420525  0.80628032    -0.77300
C2107       C  0.63290132  0.64858934  0.65954176     0.83700
O2108       O  0.60383981  0.53733530  0.75031363    -0.78500
O2109       O  0.69193447  0.60737503  0.65668394    -0.79900
O2110       O  0.72504847  0.67666469  0.78787091    -0.79700
O2111       O  0.65968444  0.65186063  0.84841247    -0.78400
Zn2112     Zn  0.61787013  0.61104486  0.75031401     1.55700
O2113       O  0.72504342  0.67665752  0.71270976    -0.79800
Cd2114     Cd  0.68329023  0.63716380  0.80597680     1.59700
Cd2115     Cd  0.64971959  0.57127150  0.75030383     1.59600
O2116       O  0.69195811  0.60740999  0.84390399    -0.79700
O2117       O  0.65831385  0.61480205  0.75029814    -1.90300
Cd2118     Cd  0.68327727  0.63714551  0.69460500     1.59900
O2119       O  0.66764635  0.56264478  0.80558960    -0.79700
O2120       O  0.65964355  0.65181654  0.65216534    -0.78400
C2121       C  0.57888067  0.53854708  0.75031308     0.84200
C2122       C  0.63294151  0.64863415  0.84105171     0.83800
O2123       O  0.61684172  0.63417998  0.69433525    -0.77300
C2124       C  0.73769002  0.68897592  0.75028971     0.84600
O2125       O  0.57982314  0.56491541  0.75031718    -0.77400
C2126       C  0.68318078  0.57858598  0.83920114     0.84800
C2127       C  0.68315328  0.57854981  0.66139280     0.85100
O2128       O  0.66762691  0.56261846  0.69501455    -0.79800
N2129       N  0.61065971  0.65712880  0.91364127    -0.02300
C2130       C  0.61986035  0.66361746  0.86969629    -0.01100
C2131       C  0.60468738  0.67716641  0.84876393    -0.22600
C2132       C  0.58495041  0.67832554  0.87947707    -0.22800
C2133       C  0.58762092  0.66464655  0.91834837     0.00200
H2134       H  0.60547265  0.68262469  0.81336218     0.13900
H2135       H  0.56725725  0.68441275  0.87217103     0.14000
C2136       C  0.85806242  0.67689906  0.96979503     0.04300
C2137       C  0.82793555  0.65067291  0.97081303    -0.11900
C2138       C  0.82380297  0.62056939  0.97104231     0.01800
C2139       C  0.85003573  0.61666245  0.97225624    -0.10400
C2140       C  0.88015242  0.64259633  0.97119216     0.04300
C2141       C  0.88402442  0.67274711  0.97106219    -0.09800
H2142       H  0.80772063  0.65363701  0.96816222     0.09900
H2143       H  0.84701010  0.59342219  0.97063716     0.07400
H2144       H  0.90722600  0.69294818  0.96863230     0.07200
O2145       O  0.51125490  0.65669163  0.84388053    -0.77300
C2146       C  0.55814526  0.64627394  0.94399097     0.83700
O2147       O  0.92341406  0.57057999  0.90434920    -0.78500
O2148       O  0.97856039  0.61318144  0.05323568    -0.79900
O2149       O  0.50264198  0.70890009  0.95282090    -0.79700
O2150       O  0.98003947  0.67597126  0.85805554    -0.78400
Zn2151     Zn  0.99974911  0.62593061  0.89687081     1.55700
O2152       O  0.51426732  0.69280422  0.01642773    -0.79800
Cd2153     Cd  0.97296548  0.66805928  0.92445963     1.59700
Cd2154     Cd  0.93912879  0.59927357  0.95878843     1.59600
O2155       O  0.93026246  0.66053377  0.94202594    -0.79700
O2156       O  0.98051957  0.63511676  0.94567260    -1.90300
Cd2157     Cd  0.50650133  0.64764076  0.00129776     1.59900
O2158       O  0.90675463  0.61337821  0.97328182    -0.79700
O2159       O  0.55188034  0.65750486  0.97874959    -0.78400
C2160       C  0.93936913  0.56790604  0.87305979     0.84200
C2161       C  0.49879579  0.67288726  0.83247803     0.83800
O2162       O  0.53642763  0.62371505  0.92217909    -0.77300
C2163       C  0.51427306  0.71417989  0.99180381     0.84600
O2164       O  0.96872944  0.58577064  0.86958090    -0.77400
C2165       C  0.90719705  0.63855253  0.96233519     0.84800
C2166       C  0.95410664  0.58569034  0.04955450     0.85100
O2167       O  0.94292640  0.57452961  0.01109975    -0.79800
O2168       O  0.50583671  0.83654528  0.07830481    -0.77300
C2169       C  0.54339912  0.78727033  0.16791154     0.83700
O2170       O  0.61884835  0.88967083  0.09606431    -0.78500
O2171       O  0.61199199  0.79972498  0.05843774    -0.79900
O2172       O  0.52793308  0.76745181  0.98391774    -0.79700
O2173       O  0.99035018  0.80276282  0.02172497    -0.78400
Zn2174     Zn  0.54250905  0.83430012  0.10357092     1.55700
O2175       O  0.53963538  0.75135535  0.04745657    -0.79800
Cd2176     Cd  0.53572258  0.81261808  0.99911893     1.59700
Cd2177     Cd  0.60312294  0.86097189  0.04162693     1.59600
O2178       O  0.56367674  0.84708431  0.94719332    -0.79700
O2179       O  0.56172397  0.82512143  0.05473773    -1.90300
Cd2180     Cd  0.56926653  0.79216302  0.07592059     1.59900
O2181       O  0.59932623  0.88572361  0.98933031    -0.79700
O2182       O  0.56211437  0.78414496  0.14230072    -0.78400
C2183       C  0.60289585  0.89232804  0.12737301     0.84200
C2184       C  0.98410409  0.81399310  0.05650412     0.83800
O2185       O  0.53099887  0.80352767  0.15655202    -0.77300
C2186       C  0.52796470  0.74607812  0.00850061     0.84600
O2187       O  0.57353929  0.87444887  0.13086619    -0.77400
C2188       C  0.58814275  0.87456699  0.95087663     0.84800
C2189       C  0.63506244  0.82170401  0.03813459     0.85100
O2190       O  0.63550222  0.84687092  0.02714912    -0.79800
O2191       O  0.64918275  0.96469348  0.92077242    -0.77300
C2192       C  0.69101710  0.56260508  0.87307523     0.83700
O2193       O  0.75771684  0.51970964  0.85807984    -0.78500
O2194       O  0.76811439  0.59373217  0.97359432    -0.79900
O2195       O  0.69634914  0.52233214  0.05331937    -0.79700
O2196       O  0.66744216  0.94924207  0.97756686    -0.78400
Zn2197     Zn  0.68805337  0.50164425  0.89615165     1.55700
O2198       O  0.69322721  0.55782401  0.01111743    -0.79800
Cd2199     Cd  0.70290253  0.99443199  0.00099950     1.59700
Cd2200     Cd  0.75679270  0.52772022  0.92416637     1.59600
O2201       O  0.74034343  0.98662619  0.01630932    -0.79700
O2202       O  0.71630653  0.52036331  0.94530214    -1.90300
Cd2203     Cd  0.72178475  0.56166979  0.95884040     1.59900
O2204       O  0.76831247  0.99850532  0.95296551    -0.79700
O2205       O  0.70940491  0.57818808  0.90476667    -0.78400
C2206       C  0.73576294  0.00129008  0.83238339     0.84200
C2207       C  0.65006645  0.94301645  0.94262800     0.83800
O2208       O  0.67940956  0.53323484  0.86910344    -0.77300
C2209       C  0.69326648  0.54675494  0.04963172     0.84600
O2210       O  0.70712334  0.98974507  0.84336080    -0.77400
C2211       C  0.76191578  0.98683856  0.99188350     0.84800
C2212       C  0.79284308  0.59348981  0.96209662     0.85100
O2213       O  0.79185544  0.57063796  0.94125696    -0.79800
O2214       O  0.86286027  0.92701993  0.13148944    -0.77300
C2215       C  0.89218702  0.51722941  0.05784673     0.83700
O2216       O  0.78456321  0.94054924  0.14250039    -0.78500
O2217       O  0.80189136  0.97358383  0.98425099    -0.79900
O2218       O  0.84899516  0.90238632  0.98942525    -0.79700
O2219       O  0.83286853  0.88206780  0.09581784    -0.78400
Zn2220     Zn  0.85422052  0.95861826  0.10441418     1.55700
O2221       O  0.84588140  0.93788505  0.94722796    -0.79800
Cd2222     Cd  0.82047781  0.89857469  0.04174370     1.59700
Cd2223     Cd  0.78548072  0.93253579  0.07641821     1.59600
O2224       O  0.77414478  0.86651684  0.02702823    -0.79700
O2225       O  0.82596062  0.93988195  0.05527272    -1.90300
Cd2226     Cd  0.83933526  0.96578253  0.99954905     1.59900
O2227       O  0.75040772  0.88962245  0.05934291    -0.79700
O2228       O  0.87480282  0.51097760  0.02291359    -0.78400
C2229       C  0.80651621  0.95898585  0.16818325     0.84200
C2230       C  0.85125032  0.89764767  0.12751674     0.83800
O2231       O  0.89307865  0.99557128  0.07974757    -0.77300
C2232       C  0.84896241  0.91346209  0.95091226     0.84600
O2233       O  0.83515618  0.97054125  0.15719688    -0.77400
C2234       C  0.74941845  0.86676532  0.03851809     0.84800
C2235       C  0.78033514  0.97339199  0.00869067     0.85100
O2236       O  0.77395867  0.96174990  0.04762392    -0.79800
C2237       C  0.68419968  0.78335839  0.03083440     0.04300
C2238       C  0.65824048  0.78751182  0.02949971    -0.11900
C2239       C  0.66211372  0.81766291  0.02933515     0.01800
C2240       C  0.69223098  0.84359631  0.02830266    -0.10400
C2241       C  0.71846076  0.83968650  0.02957395     0.04300
C2242       C  0.71432703  0.80958286  0.02984370    -0.09800
H2243       H  0.63503650  0.76731133  0.03190148     0.09900
H2244       H  0.69525706  0.86683762  0.02989532     0.07400
H2245       H  0.73453970  0.80661847  0.03253740     0.07200
O2246       O  0.87831803  0.85288850  0.92265390    -0.77300
C2247       C  0.93353841  0.81098640  0.87129512     0.83700
O2248       O  0.82393826  0.74476303  0.85769286    -0.78500
O2249       O  0.88710620  0.73257682  0.97171299    -0.79900
O2250       O  0.88834971  0.80474647  0.05246842    -0.79700
O2251       O  0.84377057  0.83369431  0.97821469    -0.78400
Zn2252     Zn  0.87652905  0.81441523  0.89633070     1.55700
O2253       O  0.92651160  0.80676679  0.01009100    -0.79800
Cd2254     Cd  0.85369384  0.79820190  0.00072684     1.59700
Cd2255     Cd  0.83285409  0.74465377  0.92343621     1.59600
O2256       O  0.80851886  0.76074676  0.01628252    -0.79700
O2257       O  0.86617547  0.78509114  0.94464011    -1.90300
Cd2258     Cd  0.90160200  0.77893169  0.95695221     1.59900
O2259       O  0.79218155  0.73308675  0.95271399    -0.79700
O2260       O  0.92927878  0.79083577  0.90106278    -0.78400
C2261       C  0.82802713  0.76701630  0.83222029     0.84200
C2262       C  0.85531961  0.85154969  0.94385385     0.83800
O2263       O  0.91740663  0.82445354  0.86928819    -0.77300
C2264       C  0.91565161  0.80735706  0.04865740     0.84600
O2265       O  0.84573340  0.79557886  0.84321447    -0.77400
C2266       C  0.78704069  0.73932705  0.99181984     0.84800
C2267       C  0.86207238  0.70789064  0.96035298     0.85100
O2268       O  0.84026135  0.70901532  0.93953717    -0.79800
O2269       O  0.62482679  0.63577194  0.13129044    -0.77300
C2270       C  0.68692071  0.60868296  0.05669936     0.83700
O2271       O  0.71826504  0.71544994  0.14292614    -0.78500
O2272       O  0.73371564  0.69950765  0.98433521    -0.79900
O2273       O  0.61573940  0.65353650  0.99046773    -0.79700
O2274       O  0.61294846  0.66939085  0.09953168    -0.78400
Zn2275     Zn  0.66570427  0.64581039  0.10424434     1.55700
O2276       O  0.65389208  0.65551196  0.94811324    -0.79800
Cd2277     Cd  0.64063840  0.68132232  0.04365179     1.59700
Cd2278     Cd  0.70937309  0.71557888  0.07718305     1.59600
O2279       O  0.65514407  0.72768245  0.02892541    -0.79700
O2280       O  0.67605545  0.67514621  0.05595305    -1.90300
Cd2281     Cd  0.68854018  0.66204649  0.99986367     1.59900
O2282       O  0.70198667  0.75123225  0.06110197    -0.79700
O2283       O  0.69846425  0.62654756  0.02234595    -0.78400
C2284       C  0.71418806  0.69318992  0.16837399     0.84200
C2285       C  0.60868932  0.64923355  0.12928887     0.83800
O2286       O  0.66392697  0.60734086  0.07791884    -0.77300
C2287       C  0.62659758  0.65292113  0.95190951     0.84600
O2288       O  0.69649757  0.66463031  0.15735622    -0.77400
C2289       C  0.68018031  0.75236453  0.04028642     0.84800
C2290       C  0.75519342  0.72092057  0.00880689     0.85100
O2291       O  0.75005195  0.72715106  0.04791890    -0.79800
N2292       N  0.93154995  0.80306697  0.41364235    -0.02300
C2293       C  0.92234484  0.79656896  0.36969869     0.00300
C2294       C  0.93751641  0.78301650  0.34877284    -0.22600
C2295       C  0.95725852  0.78186640  0.37948660    -0.22800
C2296       C  0.95459126  0.79555227  0.41835230     0.00200
H2297       H  0.93672768  0.77755106  0.31337372     0.13900
H2298       H  0.97494949  0.77577650  0.37218539     0.14000
O2299       O  0.92534834  0.82597149  0.30626659    -0.77300
C2300       C  0.90929688  0.81158975  0.15952134     0.83700
O2301       O  0.93839183  0.92284858  0.25029957    -0.78500
O2302       O  0.85028075  0.85282648  0.15669147    -0.79900
O2303       O  0.81716438  0.78354129  0.28787713    -0.79700
O2304       O  0.88253524  0.80834609  0.34840960    -0.78400
Zn2305     Zn  0.92434873  0.84913610  0.25029696     1.55700
O2306       O  0.81716372  0.78353858  0.21271663    -0.79800
Cd2307     Cd  0.85893224  0.82304357  0.30596890     1.59700
Cd2308     Cd  0.89251358  0.88892757  0.25029479     1.59600
O2309       O  0.85027727  0.85280897  0.34388717    -0.79700
O2310       O  0.88390896  0.84539292  0.25028819    -1.90300
Cd2311     Cd  0.85893265  0.82304802  0.19460320     1.59900
O2312       O  0.87460174  0.89757474  0.30558017    -0.79700
O2313       O  0.88255599  0.80836967  0.15215473    -0.78400
C2314       C  0.96334877  0.92163390  0.25029842     0.84200
C2315       C  0.90927039  0.81155503  0.34104465     0.83800
O2316       O  0.92536455  0.82599664  0.19431218    -0.77300
C2317       C  0.80451880  0.77122445  0.25029860     0.84600
O2318       O  0.96240451  0.89526442  0.25030220    -0.77400
C2319       C  0.85906312  0.88163506  0.33918836     0.84800
C2320       C  0.85907401  0.88165525  0.16139437     0.85100
O2321       O  0.87461156  0.89758876  0.19500853    -0.79800
N2322       N  0.93159286  0.80313536  0.08690730    -0.02300
C2323       C  0.92239519  0.79663154  0.13085286     0.00300
C2324       C  0.93757759  0.78308403  0.15176226    -0.22600
C2325       C  0.95731592  0.78194055  0.12103505    -0.22800
C2326       C  0.95463720  0.79562600  0.08217664     0.00200
H2327       H  0.93679350  0.77761142  0.18715715     0.13900
H2328       H  0.97500826  0.77584950  0.12832029     0.14000
loop_ 
_geom_bond_atom_site_label_1 
_geom_bond_atom_site_label_2 
_geom_bond_distance 
_geom_bond_site_symmetry_2 
_ccdc_geom_bond_type 
C1            N2   1.361       .  A
C1            N6   1.361       .  A
C1          C460   1.462       .  S
N2            C3   1.354       .  A
C3            N4   1.354       .  A
C3          C730   1.475       .  S
N4            C5   1.361       .  A
C5            N6   1.361       .  A
C5          C267   1.462       .  S
C7            N8   1.361       .  A
C7           N12   1.361       .  A
C7          C290   1.462       .  S
N8            C9   1.354       .  A
C9           N10   1.354       .  A
C9          C185   1.475       .  S
N10          C11   1.361       .  A
C11          N12   1.361       .  A
C11         C483   1.462       .  S
C13          N14   1.361       .  A
C13          N18   1.360       .  A
C13         C538   1.460       .  S
N14          C15   1.353       .  A
C15          N16   1.353       .  A
C15         C571   1.476       .  S
N16          C17   1.361       .  A
C17          N18   1.360       .  A
C17         C345   1.460       .  S
C19          N20   1.360       .  A
C19          N24   1.361       .  A
C19         C515   1.460       .  S
N20          C21   1.360       .  A
C21          N22   1.361       .  A
C21         C322   1.460       .  S
N22          C23   1.353       .  A
C23          N24   1.353       .  A
C23         C378   1.475       .  S
C25          N26   1.360       .  A
C25          N30   1.362       .  A
C25         C415   1.461   1_455  S
N26          C27   1.351       .  A
C27          N28   1.351       .  A
C27        C1272   1.462       .  S
N28          C29   1.360       .  A
C29          N30   1.362       .  A
C29         C207   1.461   1_455  S
C31          N32   1.360       .  A
C31          N36   1.362       .  A
C31         C423   1.461       .  S
N32          C33   1.351       .  A
C33          N34   1.351       .  A
C33          C71   1.462       .  S
N34          C35   1.360       .  A
C35          N36   1.362       .  A
C35         C245   1.461       .  S
C37          N42   1.367       .  A
C37         N620   1.366       .  A
C37         C182   1.490       .  S
N38          C39   1.367       .  A
N38         C619   1.366   1_545  A
C39        N1786   1.361   1_445  A
C39          C74   1.486       .  S
N40          C41   1.365       .  A
N40        C1785   1.361       .  A
C41        N1206   1.359       .  A
C41         C568   1.490       .  S
N42        C1205   1.359   1_455  A
C43          N44   1.366       .  A
C43        N1794   1.367       .  A
C43         C145   1.490       .  S
N44        C1209   1.367       .  A
C45          N46   1.361       .  A
C45        N1208   1.367   1_455  A
C45        C1275   1.486       .  S
N46         C629   1.365       .  A
C47          N48   1.359       .  A
C47         N628   1.365   1_545  A
C47         C375   1.490       .  S
N48        C1789   1.367   1_445  A
N49          C53   1.369       .  A
N49          C50   1.364       .  A
N49         C420   1.455       .  S
C50          C72   1.471       .  S
C50          C51   1.380       .  A
C51          C52   1.363       .  A
C51          H54   1.083       .  S
C52          C53   1.380       .  A
C52          H55   1.081       .  S
C53         C469   1.486       .  S
O56          C72   1.278       .  A
O56       Zn1226   2.025       .  S
C57          C80   1.471       .  S
C57          O73   1.278       .  A
C57        O1234   1.275       .  A
O58          C71   1.273       .  A
O58         Cd65   2.082       .  S
O59          C77   1.267       .  A
O59         Cd68   2.030       .  S
O60          C74   1.278       .  A
O60         Cd64   2.107       .  S
O61        C1236   1.275       .  A
O61         Cd64   2.085   1_655  S
Zn62         O75   2.006   1_655  S
Zn62       O1220   2.025       .  S
Zn62       O1237   2.025       .  S
Zn62         O67   1.935   1_655  S
O63          C74   1.278       .  A
O63         Cd68   2.106       .  S
Cd64         O66   2.030       .  S
Cd64         O67   2.012       .  S
Cd65         O69   2.066       .  S
Cd65         O78   2.066       .  S
Cd65         O67   2.001       .  S
O66          C76   1.267       .  A
O67         Cd68   2.012       .  S
Cd68         O70   2.085   1_455  S
O69          C76   1.274       .  A
O70        C1221   1.275       .  A
C71          O75   1.269       .  A
C72        O1225   1.275       .  A
O73       Zn1226   2.025       .  S
C76         C539   1.443       .  S
C77         C331   1.443       .  S
C77          O78   1.274       .  A
N79          C83   1.369       .  A
N79          C80   1.364       .  A
N79         C226   1.455       .  S
C80          C81   1.380       .  A
C81          C82   1.363       .  A
C81          H84   1.083       .  S
C82          C83   1.380       .  A
C82          H85   1.081       .  S
C83         C291   1.486       .  S
N86          C90   1.369       .  A
N86          C87   1.364       .  A
N86         C250   1.455       .  S
C87         C109   1.471       .  S
C87          C88   1.380       .  A
C88          C89   1.363       .  A
C88          H91   1.083       .  S
C89          C90   1.380       .  A
C89          H92   1.081       .  S
C90         C253   1.486       .  S
O93         C109   1.278       .  A
O93         Zn99   2.024       .  S
C94         C117   1.471       .  S
C94         O110   1.278       .  A
C94         O107   1.275       .  A
O95         C108   1.273       .  A
O95        Cd102   2.082       .  S
O96         C114   1.267       .  A
O96        Cd105   2.030       .  S
O97         C111   1.278       .  A
O97        Cd101   2.107       .  S
O98         C109   1.275       .  A
O98       Cd1265   2.085       .  S
Zn99        O110   2.025       .  S
Zn99        O112   2.006       .  S
Zn99       O1268   1.935       .  S
O100        C111   1.278       .  A
O100       Cd105   2.106       .  S
Cd101       O103   2.030       .  S
Cd101      O1262   2.085       .  S
Cd101       O104   2.012       .  S
Cd102       O106   2.066       .  S
Cd102       O115   2.066       .  S
Cd102       O104   2.001       .  S
O103        C113   1.267       .  A
O104      Zn1263   1.935       .  S
O104       Cd105   2.012       .  S
Cd105      O1271   2.085       .  S
O106        C113   1.274       .  A
O107      Cd1269   2.085       .  S
C108       C1191   1.462       .  S
C108       O1276   1.269       .  A
C111       C1209   1.486       .  S
O112       C1272   1.269       .  A
C113        C323   1.443       .  S
C114        C501   1.443       .  S
C114        O115   1.274       .  A
N116        C120   1.369       .  A
N116        C117   1.364       .  A
N116        C442   1.455       .  S
C117        C118   1.380       .  A
C118        C119   1.363       .  A
C118        H121   1.083       .  S
C119        C120   1.380       .  A
C119        H122   1.081       .  S
C120        C461   1.486       .  S
N123        C127   1.367       .  A
N123        C124   1.372       .  A
N123        C293   1.457       .  S
C124        C308   1.487       .  S
C124        C125   1.379       .  A
C125        C126   1.360       .  A
C125        H128   1.080       .  S
C126        C127   1.380       .  A
C126        H129   1.083       .  S
C127        C131   1.472       .  S
O130        C146   1.281       .  A
O130       Zn136   2.029       .  S
C131        O147   1.281       .  A
C131        O144   1.269       .  A
O132        C727   1.268   1_545  A
O132       Cd139   2.045       .  S
O133        C151   1.273       .  A
O133       Cd142   2.055   1_545  S
O134        C148   1.277       .  A
O134       Cd138   2.082       .  S
O135        C146   1.270       .  A
O135       Cd720   2.079       .  S
Zn136       O147   2.029       .  S
Zn136       O149   2.107       .  S
Zn136       O723   1.914       .  S
O137        C148   1.277       .  A
O137       Cd142   2.082       .  S
Cd138       O140   2.055   1_565  S
Cd138       O717   2.079       .  S
Cd138       O141   2.029       .  S
Cd139       O143   2.020       .  S
Cd139       O152   2.020       .  S
Cd139       O141   1.977   1_545  S
O140        C150   1.273       .  A
O141       Zn718   1.914       .  S
O141       Cd142   2.029       .  S
Cd142       O726   2.079       .  S
O143        C150   1.269       .  A
O144       Cd724   2.079       .  S
C145        O149   1.281       .  A
C145        O714   1.268       .  A
C146        C157   1.472       .  S
C148        C585   1.475       .  S
C150        C414   1.447       .  S
C151        C221   1.447       .  S
C151        O152   1.269       .  A
N153        C157   1.367       .  A
N153        C154   1.372       .  A
N153        C486   1.457       .  S
C154        C516   1.487       .  S
C154        C155   1.379       .  A
C155        C156   1.360       .  A
C155        H158   1.080       .  S
C156        C157   1.380       .  A
C156        H159   1.083       .  S
N160        C164   1.367       .  A
N160        C161   1.372       .  A
N160        C463   1.457       .  S
C161        C524   1.487       .  S
C161        C162   1.379       .  A
C162        C163   1.360       .  A
C162        H165   1.080       .  S
C163        C164   1.380       .  A
C163        H166   1.083       .  S
C164        C168   1.472       .  S
O167        C183   1.281       .  A
O167       Zn755   2.029       .  S
C168        O184   1.281       .  A
C168        O763   1.269       .  A
O169        C182   1.268       .  A
O169       Cd176   2.045       .  S
O170        C188   1.273       .  A
O170       Cd179   2.055       .  S
O171        C185   1.277       .  A
O171       Cd175   2.082       .  S
O172        C765   1.269       .  A
O172       Cd175   2.079       .  S
Zn173       O186   2.107       .  S
Zn173       O749   2.029       .  S
Zn173       O766   2.029       .  S
Zn173       O178   1.914       .  S
O174        C185   1.277       .  A
O174       Cd179   2.082       .  S
Cd175       O177   2.055       .  S
Cd175       O178   2.029       .  S
Cd176       O180   2.020       .  S
Cd176       O189   2.020       .  S
Cd176       O178   1.977       .  S
O177        C187   1.273       .  A
O178       Cd179   2.029       .  S
Cd179       O181   2.079       .  S
O180        C187   1.269       .  A
O181        C750   1.269       .  A
C182        O186   1.281       .  A
C183        C194   1.472       .  S
C183        O754   1.269       .  A
O184       Zn755   2.029       .  S
C187        C244   1.447       .  S
C188        C437   1.447       .  S
C188        O189   1.269       .  A
N190        C194   1.367       .  A
N190        C191   1.372       .  A
N190        C270   1.457       .  S
C191        C346   1.487       .  S
C191        C192   1.379       .  A
C192        C193   1.360       .  A
C192        H195   1.080       .  S
C193        C194   1.380       .  A
C193        H196   1.083       .  S
C197        C327   1.471       .  S
C197        C198   1.404       .  A
C197        C202   1.399       .  A
C198        C199   1.398       .  A
C198        H203   1.084       .  S
C199        C272   1.469       .  S
C199        C200   1.405       .  A
C200        C201   1.398       .  A
C200        H204   1.084       .  S
C201        C227   1.472       .  S
C201        C202   1.406       .  A
C202        H205   1.084       .  S
O206        C222   1.273       .  A
O206      Zn1376   2.017   1_455  S
C207        O223   1.277   1_655  A
C207       O1384   1.267       .  A
O208        C221   1.270       .  A
O208       Cd215   2.035       .  S
O209        C227   1.268       .  A
O209       Cd218   2.022       .  S
O210        C224   1.286       .  A
O210       Cd214   2.118       .  S
O211        C222   1.283       .  A
O211       Cd214   2.153       .  S
Zn212       O225   1.978       .  S
Zn212      O1370   2.017       .  S
Zn212      O1387   2.064       .  S
Zn212       O217   1.911       .  S
O213        C224   1.263       .  A
O213      Cd1382   1.995   1_455  S
Cd214      O1380   2.202   1_455  S
Cd214      O1381   1.995   1_455  S
Cd215       O219   2.046       .  S
Cd215       O228   2.087       .  S
Cd215       O217   1.964       .  S
O216        C226   1.296       .  A
O216      Cd1378   2.202       .  S
O217       Cd218   1.950       .  S
O217      Cd1378   1.995       .  S
Cd218       O220   2.011       .  S
Cd218      O1377   1.995       .  S
O219        C226   1.270       .  A
O220       C1371   1.267       .  A
C221        O225   1.272       .  A
C222        C357   1.486       .  S
O223      Zn1376   2.064   1_455  S
C224        C247   1.458       .  S
C227        O228   1.277       .  A
O229        C245   1.277       .  A
O229       Zn235   2.064       .  S
C230        C550   1.486       .  S
C230        O243   1.283       .  A
C230       O1410   1.273       .  A
O231        C244   1.270       .  A
O231       Cd238   2.034       .  S
O232        C250   1.296       .  A
O232       Cd241   2.202       .  S
O233        C247   1.263       .  A
O233       Cd237   1.996       .  S
O234        C245   1.267       .  A
O234       Cd237   2.010       .  S
Zn235       O246   2.018       .  S
Zn235       O248   1.978       .  S
Zn235       O240   1.911       .  S
O236        C247   1.286       .  A
O236       Cd241   2.118       .  S
Cd237       O239   2.022       .  S
Cd237       O240   1.950       .  S
Cd238       O242   2.087       .  S
Cd238       O251   2.046       .  S
Cd238       O240   1.964       .  S
O239        C249   1.268       .  A
O240       Cd241   1.995       .  S
Cd241      O1407   2.152   1_455  S
O242        C249   1.277       .  A
O243      Cd1405   2.152       .  S
C244        O248   1.272       .  A
O246       C1394   1.273   1_455  A
C249        C300   1.472       .  S
C250        O251   1.271       .  A
O252        C268   1.273       .  A
O252       Zn258   1.986       .  S
C253        O269   1.274       .  A
C253        O266   1.284       .  A
O254        C849   1.267       .  A
O254       Cd261   2.011       .  S
O255        C273   1.287       .  A
O255       Cd264   2.122       .  S
O256        C270   1.270       .  A
O256       Cd260   2.045       .  S
O257        C268   1.269       .  A
O257       Cd260   2.033       .  S
Zn258       O851   2.015   1_545  S
Zn258       O853   2.064   1_545  S
Zn258       O263   1.912       .  S
O259        C270   1.296       .  A
O259       Cd846   2.209   1_545  S
Cd260       O262   2.080       .  S
Cd260       O263   1.964       .  S
Cd261       O265   2.023       .  S
Cd261       O856   1.993   1_545  S
Cd261       O263   1.952       .  S
O262        C272   1.276       .  A
O263       Cd846   1.995   1_545  S
Cd264       O266   2.153       .  S
Cd264       O841   2.209       .  S
Cd264       O845   1.995       .  S
O265        C272   1.269       .  A
C267        O271   1.277       .  A
C267        O836   1.267       .  A
C268        C381   1.449       .  S
O269       Zn840   2.015       .  S
O271       Zn840   2.064       .  S
C273        C295   1.459       .  S
C273        O274   1.261       .  A
O274       Cd843   1.993       .  S
O275        C873   1.274       .  A
O275       Zn281   2.015       .  S
C276        C573   1.448       .  S
C276        O292   1.273       .  A
C276        O289   1.269       .  A
O277        C290   1.267       .  A
O277       Cd284   2.011       .  S
O278        C296   1.276       .  A
O278       Cd287   2.080       .  S
O279        C293   1.296       .  A
O279       Cd283   2.209       .  S
O280        C291   1.284       .  A
O280       Cd865   2.154   1_545  S
Zn281       O292   1.986       .  S
Zn281       O294   2.064       .  S
Zn281       O286   1.912       .  S
O282        C293   1.270       .  A
O282       Cd287   2.045       .  S
Cd283       O285   2.122       .  S
Cd283       O862   2.154       .  S
Cd283       O286   1.995       .  S
Cd284       O288   1.993       .  S
Cd284       O297   2.023       .  S
Cd284       O286   1.952       .  S
O285        C295   1.287       .  A
O286       Cd287   1.964       .  S
Cd287       O289   2.033       .  S
O288        C295   1.261       .  A
C290        O294   1.277       .  A
C291        O857   1.274   1_545  A
C296        C302   1.469       .  S
C296        O297   1.269       .  A
C298        C351   1.471       .  S
C298        C299   1.399       .  A
C298        C303   1.404       .  A
C299        C300   1.406       .  A
C299        H304   1.084       .  S
C300        C301   1.398       .  A
C301        C302   1.405       .  A
C301        H305   1.084       .  S
C302        C303   1.398       .  A
C303        H306   1.084       .  S
O307        C323   1.271       .  A
O307       Zn313   1.995       .  S
C308        O324   1.273       .  A
C308        O321   1.283       .  A
O309        C322   1.267       .  A
O309       Cd316   2.006       .  S
O310        C328   1.287       .  A
O310       Cd319   2.121       .  S
O311        C325   1.274       .  A
O311       Cd315   2.054       .  S
O312        C323   1.270       .  A
O312       Cd315   2.045       .  S
Zn313       O324   2.019       .  S
Zn313       O326   2.065       .  S
Zn313       O318   1.921       .  S
O314        C325   1.296       .  A
O314       Cd319   2.204       .  S
Cd315       O317   2.079       .  S
Cd315       O318   1.958       .  S
Cd316       O320   2.030       .  S
Cd316       O329   1.996       .  S
Cd316       O318   1.954       .  S
O317        C327   1.275       .  A
O318       Cd319   1.997       .  S
Cd319       O321   2.153       .  S
O320        C327   1.269       .  A
C322        O326   1.278       .  A
C325        N546   1.458       .  S
C328        C350   1.460       .  S
C328        O329   1.262       .  A
O330        C346   1.273       .  A
O330       Zn336   2.019       .  S
C331        O347   1.271       .  A
C331        O344   1.270       .  A
O332        C345   1.267       .  A
O332       Cd339   2.005       .  S
O333        C351   1.275       .  A
O333       Cd342   2.079       .  S
O334        C348   1.296       .  A
O334       Cd338   2.204       .  S
O335        C346   1.283       .  A
O335       Cd338   2.153       .  S
Zn336       O347   1.995       .  S
Zn336       O349   2.066       .  S
Zn336       O341   1.921       .  S
O337        C348   1.274       .  A
O337       Cd342   2.053       .  S
Cd338       O340   2.121       .  S
Cd338       O341   1.997       .  S
Cd339       O343   1.996       .  S
Cd339       O352   2.029       .  S
Cd339       O341   1.954       .  S
O340        C350   1.287       .  A
O341       Cd342   1.958       .  S
Cd342       O344   2.045       .  S
O343        C350   1.262       .  A
C345        O349   1.278       .  A
C348        N353   1.458       .  S
C351        O352   1.269       .  A
N353        C357   1.372       .  A
N353        C354   1.369       .  A
C354        C361   1.475       .  S
C354        C355   1.380       .  A
C355        C356   1.359       .  A
C355        H358   1.083       .  S
C356        C357   1.379       .  A
C356        H359   1.081       .  S
O360        C376   1.282       .  A
O360       Zn366   2.036       .  S
C361        O377   1.282       .  A
C361        O374   1.270       .  A
O362        C375   1.266       .  A
O362       Cd369   2.039       .  S
O363        C381   1.274       .  A
O363       Cd372   2.063       .  S
O364        C378   1.277       .  A
O364       Cd368   2.083       .  S
O365        C376   1.270       .  A
O365       Cd368   2.082       .  S
Zn366       O377   2.036       .  S
Zn366       O379   2.111       .  S
Zn366       O371   1.915       .  S
O367        C378   1.277       .  A
O367       Cd372   2.083       .  S
Cd368       O370   2.063       .  S
Cd368       O371   2.032       .  S
Cd369       O373   2.013       .  S
Cd369       O382   2.013       .  S
Cd369       O371   1.976       .  S
O370        C380   1.274       .  A
O371       Cd372   2.032       .  S
Cd372       O374   2.083       .  S
O373        C380   1.267       .  A
C375        O379   1.282       .  A
C376        C384   1.475       .  S
C380        C446   1.448       .  S
C381        O382   1.267       .  A
N383        C387   1.372       .  A
N383        C384   1.369       .  A
N383        C541   1.458       .  S
C384        C385   1.380       .  A
C385        C386   1.359       .  A
C385        H388   1.083       .  S
C386        C387   1.379       .  A
C386        H389   1.081       .  S
C387        C400   1.486       .  S
C390        C521   1.471       .  S
C390        C391   1.404       .  A
C390        C395   1.399       .  A
C391        C392   1.398       .  A
C391        H396   1.084       .  S
C392        C466   1.469       .  S
C392        C393   1.405       .  A
C393        C394   1.398       .  A
C393        H397   1.084       .  S
C394        C419   1.472       .  S
C394        C395   1.406       .  A
C395        H398   1.084       .  S
O399        C415   1.277   1_455  A
O399      Zn1569   2.064   1_455  S
C400        O416   1.273       .  A
C400        O413   1.283       .  A
O401        C414   1.270       .  A
O401       Cd408   2.034       .  S
O402        C420   1.296       .  A
O402      Cd1575   2.202       .  S
O403        C417   1.263       .  A
O403      Cd1571   1.996   1_455  S
O404       C1579   1.267       .  A
O404       Cd407   2.010       .  S
Zn405       O418   1.978       .  S
Zn405      O1563   2.064       .  S
Zn405      O1580   2.018       .  S
Zn405       O410   1.911       .  S
O406        C417   1.286   1_554  A
O406       Cd411   2.118       .  S
Cd407       O409   2.022       .  S
Cd407      O1567   1.996       .  S
Cd407       O410   1.950       .  S
Cd408       O412   2.087       .  S
Cd408       O421   2.046   1_556  S
Cd408       O410   1.964       .  S
O409        C419   1.268       .  A
O410      Cd1575   1.995   1_556  S
Cd411       O413   2.152   1_554  S
Cd411      O1566   2.202   1_455  S
Cd411      O1574   1.995   1_454  S
O412        C419   1.277       .  A
C414        O418   1.272       .  A
C415       O1568   1.267       .  A
O416      Zn1569   2.018   1_455  S
C417        C440   1.458   1_556  S
C420        O421   1.271       .  A
O422       C1602   1.273   1_455  A
O422       Zn428   2.018       .  S
C423        O439   1.277       .  A
C423        O436   1.267       .  A
O424        C437   1.270       .  A
O424       Cd431   2.035       .  S
O425        C443   1.268       .  A
O425       Cd434   2.022       .  S
O426        C440   1.286   1_556  A
O426       Cd430   2.118       .  S
O427        C438   1.283       .  A
O427      Cd1594   2.153   1_554  S
Zn428       O439   2.064       .  S
Zn428       O441   1.978       .  S
Zn428       O433   1.911       .  S
O429        C440   1.263       .  A
O429       Cd434   1.995       .  S
Cd430       O432   2.202       .  S
Cd430      O1591   2.153   1_456  S
Cd430       O433   1.995   1_556  S
Cd431       O435   2.046   1_554  S
Cd431       O444   2.087       .  S
Cd431       O433   1.964       .  S
O432        C442   1.296       .  A
O433       Cd434   1.950       .  S
Cd434       O436   2.011       .  S
O435        C442   1.270       .  A
C437        O441   1.272       .  A
C438        C580   1.486       .  S
C438       O1586   1.273       .  A
C443        C493   1.472       .  S
C443        O444   1.277       .  A
O445        C461   1.274       .  A
O445      Zn1033   2.015       .  S
C446        O462   1.273       .  A
C446        O459   1.269       .  A
O447       C1042   1.267       .  A
O447       Cd454   2.011       .  S
O448        C466   1.276       .  A
O448       Cd457   2.080       .  S
O449        C463   1.296       .  A
O449      Cd1035   2.209   1_545  S
O450        C461   1.284       .  A
O450       Cd453   2.154   1_556  S
Zn451       O462   1.985       .  S
Zn451      O1027   2.015   1_545  S
Zn451      O1046   2.064   1_545  S
Zn451       O456   1.912       .  S
O452        C463   1.270       .  A
O452       Cd457   2.045   1_554  S
Cd453       O455   2.122       .  S
Cd453      O1031   2.209       .  S
Cd453      O1038   1.995   1_554  S
Cd454       O467   2.023       .  S
Cd454      O1040   1.993   1_545  S
Cd454       O456   1.952       .  S
O455        C465   1.287   1_554  A
O456       Cd457   1.964       .  S
O456      Cd1035   1.995   1_546  S
Cd457       O459   2.033       .  S
O458        C465   1.261       .  A
O458      Cd1036   1.993       .  S
C460        O464   1.277       .  A
C460       O1029   1.267       .  A
O464      Zn1033   2.064       .  S
C465        C489   1.459   1_556  S
C466        O467   1.269       .  A
O468        C484   1.273       .  A
O468       Zn474   1.986       .  S
C469        O482   1.284       .  A
C469       O1067   1.274   1_545  A
O470        C483   1.267       .  A
O470       Cd477   2.011       .  S
O471        C489   1.287   1_556  A
O471       Cd480   2.122       .  S
O472        C486   1.270       .  A
O472       Cd476   2.045   1_556  S
O473        C484   1.269       .  A
O473       Cd476   2.033       .  S
Zn474       O485   2.015       .  S
Zn474       O487   2.064       .  S
Zn474       O479   1.912       .  S
O475        C486   1.296       .  A
O475       Cd480   2.209       .  S
Cd476       O478   2.080       .  S
Cd476       O479   1.964       .  S
Cd477       O481   2.023       .  S
Cd477       O490   1.993       .  S
Cd477       O479   1.952       .  S
O478        C488   1.276       .  A
O479       Cd480   1.995   1_554  S
Cd480      O1064   2.153   1_556  S
O481        C488   1.269       .  A
O482      Cd1062   2.153   1_544  S
C483        O487   1.277       .  A
C484        C574   1.449       .  S
O485       C1051   1.274       .  A
C488        C495   1.469       .  S
C489        O490   1.261       .  A
C491        C543   1.471       .  S
C491        C492   1.399       .  A
C491        C496   1.404       .  A
C492        C493   1.406       .  A
C492        H497   1.084       .  S
C493        C494   1.398       .  A
C494        C495   1.405       .  A
C494        H498   1.084       .  S
C495        C496   1.398       .  A
C496        H499   1.084       .  S
O500        C516   1.273       .  A
O500       Zn506   2.019       .  S
C501        O517   1.271       .  A
C501        O514   1.270       .  A
O502        C515   1.267       .  A
O502       Cd509   2.006       .  S
O503        C521   1.275       .  A
O503       Cd512   2.079       .  S
O504        C518   1.296       .  A
O504       Cd508   2.204       .  S
O505        C516   1.283       .  A
O505       Cd508   2.153   1_556  S
Zn506       O517   1.995       .  S
Zn506       O519   2.066       .  S
Zn506       O511   1.921       .  S
O507        C518   1.273       .  A
O507       Cd512   2.053   1_554  S
Cd508       O510   2.121       .  S
Cd508       O511   1.997   1_554  S
Cd509       O513   1.996       .  S
Cd509       O522   2.030       .  S
Cd509       O511   1.954       .  S
O510        C520   1.287   1_554  A
O511       Cd512   1.958       .  S
Cd512       O514   2.044       .  S
O513        C520   1.262       .  A
C515        O519   1.278       .  A
C518        N576   1.458       .  S
C520        C544   1.460   1_556  S
C521        O522   1.269       .  A
O523        C539   1.271       .  A
O523       Zn529   1.995       .  S
C524        O540   1.273       .  A
C524        O537   1.283       .  A
O525        C538   1.267       .  A
O525       Cd532   2.006       .  S
O526        C544   1.287   1_556  A
O526       Cd535   2.121       .  S
O527        C541   1.274       .  A
O527       Cd531   2.053   1_556  S
O528        C539   1.270       .  A
O528       Cd531   2.045       .  S
Zn529       O540   2.019       .  S
Zn529       O542   2.065       .  S
Zn529       O534   1.921       .  S
O530        C541   1.296       .  A
O530       Cd535   2.204       .  S
Cd531       O533   2.079       .  S
Cd531       O534   1.958       .  S
Cd532       O536   2.030       .  S
Cd532       O545   1.996       .  S
Cd532       O534   1.954       .  S
O533        C543   1.275       .  A
O534       Cd535   1.997   1_554  S
Cd535       O537   2.153   1_556  S
O536        C543   1.269       .  A
C538        O542   1.278       .  A
C544        O545   1.262       .  A
N546        C550   1.372       .  A
N546        C547   1.369       .  A
C547        C569   1.475       .  S
C547        C548   1.380       .  A
C548        C549   1.359       .  A
C548        H551   1.083       .  S
C549        C550   1.379       .  A
C549        H552   1.081       .  S
O553        C569   1.282       .  A
O553       Zn559   2.036       .  S
C554        C577   1.475       .  S
C554        O570   1.282       .  A
C554        O567   1.270       .  A
O555        C568   1.266       .  A
O555       Cd562   2.039       .  S
O556        C574   1.274       .  A
O556       Cd565   2.063       .  S
O557        C571   1.277       .  A
O557       Cd561   2.083       .  S
O558        C569   1.270       .  A
O558       Cd561   2.082       .  S
Zn559       O570   2.036       .  S
Zn559       O572   2.111       .  S
Zn559       O564   1.915       .  S
O560        C571   1.277       .  A
O560       Cd565   2.083       .  S
Cd561       O563   2.063       .  S
Cd561       O564   2.032       .  S
Cd562       O566   2.013       .  S
Cd562       O575   2.013       .  S
Cd562       O564   1.976       .  S
O563        C573   1.274       .  A
O564       Cd565   2.032       .  S
Cd565       O567   2.083       .  S
O566        C573   1.267       .  A
C568        O572   1.282       .  A
C574        O575   1.267       .  A
N576        C580   1.372       .  A
N576        C577   1.369       .  A
C577        C578   1.380       .  A
C578        C579   1.359       .  A
C578        H581   1.083       .  S
C579        C580   1.379       .  A
C579        H582   1.081       .  S
C583        N584   1.361       .  A
C583        N588   1.361       .  A
C583       C1042   1.462   1_565  S
N584        C585   1.354       .  A
C585        N586   1.354       .  A
N586        C587   1.361       .  A
C587        N588   1.361       .  A
C587        C849   1.462   1_565  S
C589        N590   1.361       .  A
C589        N594   1.361       .  A
C589        C872   1.462       .  S
N590        C591   1.354       .  A
C591        N592   1.354       .  A
C591        C767   1.475       .  S
N592        C593   1.361       .  A
C593        N594   1.361       .  A
C593       C1065   1.462       .  S
C595        N596   1.361       .  A
C595        N600   1.360       .  A
C595       C1120   1.460       .  S
N596        C597   1.353       .  A
C597        N598   1.353       .  A
C597       C1153   1.476       .  S
N598        C599   1.361       .  A
C599        N600   1.360       .  A
C599        C927   1.460       .  S
C601        N602   1.360       .  A
C601        N606   1.361       .  A
C601       C1097   1.460       .  S
N602        C603   1.360       .  A
C603        N604   1.361       .  A
C603        C904   1.460       .  S
N604        C605   1.353       .  A
C605        N606   1.353       .  A
C605        C960   1.475       .  S
C607        N608   1.360       .  A
C607        N612   1.362       .  A
C607        C997   1.461   1_455  S
N608        C609   1.351       .  A
C609        N610   1.351       .  A
C609       C1854   1.462       .  S
N610        C611   1.360       .  A
C611        N612   1.362       .  A
C611        C789   1.461   1_455  S
C613        N614   1.360       .  A
C613        N618   1.362       .  A
C613       C1005   1.461       .  S
N614        C615   1.351       .  A
C615        N616   1.351       .  A
C615        C653   1.462       .  S
N616        C617   1.360       .  A
C617        N618   1.362       .  A
C617        C827   1.461       .  S
C619        N624   1.367       .  A
C619        C764   1.490       .  S
N620        C621   1.367       .  A
C621       N1204   1.361   1_455  A
C621        C656   1.486       .  S
N622       C1203   1.361   1_565  A
N622        C623   1.365       .  A
C623       N1788   1.359       .  A
C623       C1150   1.490       .  S
N624       C1787   1.359   1_455  A
C625        N626   1.366       .  A
C625       N1212   1.367   1_565  A
C625        C727   1.490       .  S
N626       C1791   1.367       .  A
C627       N1790   1.367   1_455  A
C627        N628   1.361       .  A
C627       C1857   1.486       .  S
C629        N630   1.359       .  A
C629        C957   1.490       .  S
N630       C1207   1.367   1_455  A
N631        C635   1.369       .  A
N631        C632   1.364       .  A
N631       C1002   1.455       .  S
C632        C654   1.471       .  S
C632        C633   1.380       .  A
C633        C634   1.363       .  A
C633        H636   1.083       .  S
C634        C635   1.380       .  A
C634        H637   1.081       .  S
C635       C1051   1.486       .  S
O638        C654   1.278       .  A
O638      Zn1808   2.025       .  S
C639        C662   1.471       .  S
C639        O655   1.278       .  A
C639       O1816   1.275       .  A
O640        C653   1.273       .  A
O640       Cd647   2.082       .  S
O641        C659   1.267       .  A
O641       Cd650   2.030       .  S
O642        C656   1.278       .  A
O642       Cd646   2.107       .  S
O643       C1818   1.275       .  A
O643       Cd646   2.085   1_655  S
Zn644      O1802   2.025       .  S
Zn644      O1819   2.025       .  S
Zn644       O657   2.006   1_655  S
Zn644       O649   1.935   1_655  S
O645        C656   1.278       .  A
O645       Cd650   2.106       .  S
Cd646       O648   2.030       .  S
Cd646       O649   2.012       .  S
Cd647       O651   2.066       .  S
Cd647       O660   2.066       .  S
Cd647       O649   2.001       .  S
O648        C658   1.267       .  A
O649       Cd650   2.012       .  S
Cd650       O652   2.085   1_455  S
O651        C658   1.274       .  A
O652       C1803   1.275       .  A
C653        O657   1.269       .  A
C654       O1807   1.275       .  A
O655      Zn1808   2.025       .  S
C658       C1121   1.443       .  S
C659        C913   1.443       .  S
C659        O660   1.274       .  A
N661        C665   1.369       .  A
N661        C662   1.364       .  A
N661        C808   1.455       .  S
C662        C663   1.380       .  A
C663        C664   1.363       .  A
C663        H666   1.083       .  S
C664        C665   1.380       .  A
C664        H667   1.081       .  S
C665        C873   1.486       .  S
N668        C672   1.369       .  A
N668        C669   1.364       .  A
N668        C832   1.455       .  S
C669        C691   1.471       .  S
C669        C670   1.380       .  A
C670        C671   1.363       .  A
C670        H673   1.083       .  S
C671        C672   1.380       .  A
C671        H674   1.081       .  S
C672        C835   1.486       .  S
O675        C691   1.278       .  A
O675       Zn681   2.024       .  S
C676        C699   1.471       .  S
C676        O692   1.278       .  A
C676        O689   1.275       .  A
O677        C690   1.273       .  A
O677       Cd684   2.082       .  S
O678        C696   1.267       .  A
O678       Cd687   2.030       .  S
O679        C693   1.278       .  A
O679       Cd683   2.106       .  S
O680        C691   1.275       .  A
O680      Cd1847   2.085       .  S
Zn681       O692   2.025       .  S
Zn681       O694   2.006       .  S
Zn681      O1850   1.935       .  S
O682        C693   1.278       .  A
O682       Cd687   2.106       .  S
Cd683      O1844   2.085       .  S
Cd683       O685   2.030       .  S
Cd683       O686   2.012       .  S
Cd684       O688   2.066       .  S
Cd684       O697   2.066       .  S
Cd684       O686   2.001       .  S
O685        C695   1.267       .  A
O686      Zn1845   1.935       .  S
O686       Cd687   2.012       .  S
Cd687      O1853   2.085       .  S
O688        C695   1.274       .  A
O689      Cd1851   2.085       .  S
C690       C1773   1.462       .  S
C690       O1858   1.269       .  A
C693       C1791   1.486       .  S
O694       C1854   1.269       .  A
C695        C905   1.443       .  S
C696       C1083   1.443       .  S
C696        O697   1.274       .  A
N698        C702   1.369       .  A
N698        C699   1.364       .  A
N698       C1024   1.455       .  S
C699        C700   1.380       .  A
C700        C701   1.363       .  A
C700        H703   1.083       .  S
C701        C702   1.380       .  A
C701        H704   1.081       .  S
C702       C1043   1.486       .  S
N705        C709   1.367       .  A
N705        C706   1.372       .  A
N705        C875   1.457       .  S
C706        C890   1.487       .  S
C706        C707   1.379       .  A
C707        C708   1.360       .  A
C707        H710   1.080       .  S
C708        C709   1.380       .  A
C708        H711   1.083       .  S
C709        C713   1.472       .  S
O712        C728   1.281       .  A
O712       Zn718   2.029       .  S
C713        O729   1.281       .  A
C713        O726   1.269       .  A
O714       Cd721   2.045       .  S
O715        C733   1.273       .  A
O715       Cd724   2.055       .  S
O716        C730   1.277       .  A
O716       Cd720   2.082       .  S
O717        C728   1.270       .  A
Zn718       O729   2.029       .  S
Zn718       O731   2.107       .  S
O719        C730   1.277       .  A
O719       Cd724   2.082       .  S
Cd720       O722   2.055       .  S
Cd720       O723   2.029       .  S
Cd721       O725   2.020       .  S
Cd721       O734   2.020       .  S
Cd721       O723   1.977       .  S
O722        C732   1.273       .  A
O723       Cd724   2.029       .  S
O725        C732   1.269       .  A
C727        O731   1.281       .  A
C728        C739   1.472       .  S
C732        C996   1.447       .  S
C733        C803   1.447       .  S
C733        O734   1.269       .  A
N735        C739   1.367       .  A
N735        C736   1.372       .  A
N735       C1068   1.457       .  S
C736       C1098   1.487       .  S
C736        C737   1.379       .  A
C737        C738   1.360       .  A
C737        H740   1.080       .  S
C738        C739   1.380       .  A
C738        H741   1.083       .  S
N742        C746   1.367       .  A
N742        C743   1.372       .  A
N742       C1045   1.457       .  S
C743       C1106   1.487       .  S
C743        C744   1.379       .  A
C744        C745   1.360       .  A
C744        H747   1.080       .  S
C745        C746   1.380       .  A
C745        H748   1.083       .  S
C746        C750   1.472       .  S
O749        C765   1.281       .  A
C750        O766   1.281       .  A
O751        C764   1.268       .  A
O751       Cd758   2.045       .  S
O752        C770   1.273       .  A
O752       Cd761   2.055       .  S
O753        C767   1.277       .  A
O753       Cd757   2.082       .  S
O754       Cd757   2.079   1_545  S
Zn755       O768   2.107       .  S
Zn755       O760   1.914   1_545  S
O756        C767   1.277       .  A
O756       Cd761   2.082       .  S
Cd757       O759   2.055       .  S
Cd757       O760   2.029       .  S
Cd758       O762   2.020       .  S
Cd758       O771   2.020       .  S
Cd758       O760   1.977       .  S
O759        C769   1.273       .  A
O760       Cd761   2.029       .  S
Cd761       O763   2.079   1_565  S
O762        C769   1.269       .  A
C764        O768   1.281   1_565  A
C765        C776   1.472       .  S
C769        C826   1.447       .  S
C770       C1019   1.447       .  S
C770        O771   1.269       .  A
N772        C776   1.367       .  A
N772        C773   1.372       .  A
N772        C852   1.457       .  S
C773        C928   1.487       .  S
C773        C774   1.379       .  A
C774        C775   1.360       .  A
C774        H777   1.080       .  S
C775        C776   1.380       .  A
C775        H778   1.083       .  S
C779        C909   1.471       .  S
C779        C780   1.404       .  A
C779        C784   1.399       .  A
C780        C781   1.398       .  A
C780        H785   1.084       .  S
C781        C854   1.469       .  S
C781        C782   1.405       .  A
C782        C783   1.398       .  A
C782        H786   1.084       .  S
C783        C809   1.472       .  S
C783        C784   1.406       .  A
C784        H787   1.084       .  S
O788        C804   1.273       .  A
O788      Zn1958   2.017   1_455  S
C789        O805   1.277   1_655  A
C789       O1966   1.267       .  A
O790        C803   1.270       .  A
O790       Cd797   2.035       .  S
O791        C809   1.268       .  A
O791       Cd800   2.022       .  S
O792        C806   1.286       .  A
O792       Cd796   2.118       .  S
O793        C804   1.283       .  A
O793       Cd796   2.153       .  S
Zn794      O1952   2.017       .  S
Zn794      O1969   2.064       .  S
Zn794       O807   1.978       .  S
Zn794       O799   1.911       .  S
O795        C806   1.263       .  A
O795      Cd1964   1.995   1_455  S
Cd796      O1962   2.202   1_455  S
Cd796      O1963   1.995   1_455  S
Cd797       O801   2.046       .  S
Cd797       O810   2.087       .  S
Cd797       O799   1.964       .  S
O798        C808   1.296       .  A
O798      Cd1960   2.202       .  S
O799      Cd1960   1.995       .  S
O799       Cd800   1.950       .  S
Cd800      O1959   1.995       .  S
Cd800       O802   2.011       .  S
O801        C808   1.270       .  A
O802       C1953   1.267       .  A
C803        O807   1.272       .  A
C804        C939   1.486       .  S
O805      Zn1958   2.064   1_455  S
C806        C829   1.458       .  S
C809        O810   1.277       .  A
O811        C827   1.277       .  A
O811       Zn817   2.064       .  S
C812       C1132   1.486       .  S
C812       O1992   1.273       .  A
C812        O825   1.283       .  A
O813        C826   1.270       .  A
O813       Cd820   2.034       .  S
O814        C832   1.296       .  A
O814       Cd823   2.202       .  S
O815        C829   1.263       .  A
O815       Cd819   1.996       .  S
O816        C827   1.267       .  A
O816       Cd819   2.010       .  S
Zn817       O828   2.018       .  S
Zn817       O830   1.978       .  S
Zn817       O822   1.911       .  S
O818        C829   1.286       .  A
O818       Cd823   2.118       .  S
Cd819       O821   2.022       .  S
Cd819       O822   1.950       .  S
Cd820       O824   2.087       .  S
Cd820       O833   2.046       .  S
Cd820       O822   1.964       .  S
O821        C831   1.268       .  A
O822       Cd823   1.995       .  S
Cd823      O1989   2.152   1_455  S
O824        C831   1.277       .  A
O825      Cd1987   2.152       .  S
C826        O830   1.272       .  A
O828       C1976   1.273   1_455  A
C831        C882   1.472       .  S
C832        O833   1.271       .  A
O834        C850   1.273       .  A
O834       Zn840   1.986       .  S
C835        O851   1.274       .  A
C835        O848   1.284       .  A
O836       Cd843   2.011       .  S
O837        C855   1.287       .  A
O837       Cd846   2.122       .  S
O838        C852   1.270       .  A
O838       Cd842   2.045       .  S
O839        C850   1.269       .  A
O839       Cd842   2.033       .  S
Zn840       O845   1.912       .  S
O841        C852   1.296       .  A
Cd842       O844   2.080       .  S
Cd842       O845   1.964       .  S
Cd843       O847   2.023       .  S
Cd843       O845   1.952       .  S
O844        C854   1.276       .  A
Cd846       O848   2.153       .  S
O847        C854   1.269       .  A
C849        O853   1.277   1_545  A
C850        C963   1.449       .  S
C855        C877   1.459       .  S
C855        O856   1.261       .  A
O857       Zn863   2.015       .  S
C858       C1155   1.448       .  S
C858        O874   1.273       .  A
C858        O871   1.269       .  A
O859        C872   1.267       .  A
O859       Cd866   2.011       .  S
O860        C878   1.276       .  A
O860       Cd869   2.080       .  S
O861        C875   1.296       .  A
O861       Cd865   2.209       .  S
O862        C873   1.284       .  A
Zn863       O874   1.986       .  S
Zn863       O876   2.064       .  S
Zn863       O868   1.912       .  S
O864        C875   1.270       .  A
O864       Cd869   2.045       .  S
Cd865       O867   2.122       .  S
Cd865       O868   1.995       .  S
Cd866       O870   1.993       .  S
Cd866       O879   2.023       .  S
Cd866       O868   1.952       .  S
O867        C877   1.287       .  A
O868       Cd869   1.964       .  S
Cd869       O871   2.033       .  S
O870        C877   1.261       .  A
C872        O876   1.277       .  A
C878        C884   1.469       .  S
C878        O879   1.269       .  A
C880        C933   1.471       .  S
C880        C881   1.399       .  A
C880        C885   1.404       .  A
C881        C882   1.406       .  A
C881        H886   1.084       .  S
C882        C883   1.398       .  A
C883        C884   1.405       .  A
C883        H887   1.084       .  S
C884        C885   1.398       .  A
C885        H888   1.084       .  S
O889        C905   1.271       .  A
O889       Zn895   1.995       .  S
C890        O906   1.273       .  A
C890        O903   1.283       .  A
O891        C904   1.267       .  A
O891       Cd898   2.006       .  S
O892        C910   1.287       .  A
O892       Cd901   2.121       .  S
O893        C907   1.274       .  A
O893       Cd897   2.054       .  S
O894        C905   1.270       .  A
O894       Cd897   2.045       .  S
Zn895       O906   2.019       .  S
Zn895       O908   2.065       .  S
Zn895       O900   1.921       .  S
O896        C907   1.296       .  A
O896       Cd901   2.204       .  S
Cd897       O899   2.079       .  S
Cd897       O900   1.958       .  S
Cd898       O902   2.030       .  S
Cd898       O911   1.996       .  S
Cd898       O900   1.954       .  S
O899        C909   1.275       .  A
O900       Cd901   1.997       .  S
Cd901       O903   2.153       .  S
O902        C909   1.269       .  A
C904        O908   1.278       .  A
C907       N1128   1.458       .  S
C910        C932   1.460       .  S
C910        O911   1.262       .  A
O912        C928   1.273       .  A
O912       Zn918   2.019       .  S
C913        O929   1.271       .  A
C913        O926   1.270       .  A
O914        C927   1.267       .  A
O914       Cd921   2.005       .  S
O915        C933   1.275       .  A
O915       Cd924   2.079       .  S
O916        C930   1.296       .  A
O916       Cd920   2.204       .  S
O917        C928   1.283       .  A
O917       Cd920   2.153       .  S
Zn918       O929   1.995       .  S
Zn918       O931   2.066       .  S
Zn918       O923   1.921       .  S
O919        C930   1.274       .  A
O919       Cd924   2.053       .  S
Cd920       O922   2.121       .  S
Cd920       O923   1.997       .  S
Cd921       O925   1.996       .  S
Cd921       O934   2.029       .  S
Cd921       O923   1.954       .  S
O922        C932   1.287       .  A
O923       Cd924   1.958       .  S
Cd924       O926   2.045       .  S
O925        C932   1.262       .  A
C927        O931   1.278       .  A
C930        N935   1.458       .  S
C933        O934   1.269       .  A
N935        C939   1.372       .  A
N935        C936   1.369       .  A
C936        C943   1.475       .  S
C936        C937   1.380       .  A
C937        C938   1.359       .  A
C937        H940   1.083       .  S
C938        C939   1.379       .  A
C938        H941   1.081       .  S
O942        C958   1.282       .  A
O942       Zn948   2.036       .  S
C943        O959   1.282       .  A
C943        O956   1.270       .  A
O944        C957   1.266       .  A
O944       Cd951   2.039       .  S
O945        C963   1.274       .  A
O945       Cd954   2.063       .  S
O946        C960   1.277       .  A
O946       Cd950   2.083       .  S
O947        C958   1.270       .  A
O947       Cd950   2.082       .  S
Zn948       O959   2.036       .  S
Zn948       O961   2.111       .  S
Zn948       O953   1.915       .  S
O949        C960   1.277       .  A
O949       Cd954   2.083       .  S
Cd950       O952   2.063       .  S
Cd950       O953   2.032       .  S
Cd951       O955   2.013       .  S
Cd951       O964   2.013       .  S
Cd951       O953   1.976       .  S
O952        C962   1.274       .  A
O953       Cd954   2.032       .  S
Cd954       O956   2.083       .  S
O955        C962   1.267       .  A
C957        O961   1.282       .  A
C958        C966   1.475       .  S
C962       C1028   1.448       .  S
C963        O964   1.267       .  A
N965        C969   1.372       .  A
N965        C966   1.369       .  A
N965       C1123   1.458       .  S
C966        C967   1.380       .  A
C967        C968   1.359       .  A
C967        H970   1.083       .  S
C968        C969   1.379       .  A
C968        H971   1.081       .  S
C969        C982   1.486       .  S
C972       C1103   1.471       .  S
C972        C973   1.404       .  A
C972        C977   1.399       .  A
C973        C974   1.398       .  A
C973        H978   1.084       .  S
C974       C1048   1.469       .  S
C974        C975   1.405       .  A
C975        C976   1.398       .  A
C975        H979   1.084       .  S
C976       C1001   1.472       .  S
C976        C977   1.406       .  A
C977        H980   1.084       .  S
O981        C997   1.277   1_455  A
O981      Zn2151   2.064   1_455  S
C982        O998   1.273       .  A
C982        O995   1.283       .  A
O983        C996   1.270       .  A
O983       Cd990   2.034       .  S
O984       C1002   1.296       .  A
O984      Cd2157   2.202       .  S
O985        C999   1.263       .  A
O985      Cd2153   1.996   1_455  S
O986       C2161   1.267       .  A
O986       Cd989   2.010       .  S
Zn987      O2145   2.064       .  S
Zn987      O2162   2.018       .  S
Zn987      O1000   1.978       .  S
Zn987       O992   1.911       .  S
O988        C999   1.286   1_554  A
O988       Cd993   2.118       .  S
Cd989      O2149   1.996       .  S
Cd989       O991   2.022       .  S
Cd989       O992   1.950       .  S
Cd990       O994   2.087       .  S
Cd990      O1003   2.046   1_556  S
Cd990       O992   1.964       .  S
O991       C1001   1.268       .  A
O992      Cd2157   1.995   1_556  S
Cd993      O2148   2.202   1_455  S
Cd993       O995   2.152   1_554  S
Cd993      O2156   1.995   1_454  S
O994       C1001   1.277       .  A
C996       O1000   1.272       .  A
C997       O2150   1.267       .  A
O998      Zn2151   2.018   1_455  S
C999       C1022   1.458   1_556  S
C1002      O1003   1.271       .  A
O1004      C2184   1.273   1_455  A
O1004     Zn1010   2.018       .  S
C1005      O1021   1.277       .  A
C1005      O1018   1.267       .  A
O1006      C1019   1.270       .  A
O1006     Cd1013   2.035       .  S
O1007      C1025   1.268       .  A
O1007     Cd1016   2.022       .  S
O1008      C1022   1.286   1_556  A
O1008     Cd1012   2.118       .  S
O1009      C1020   1.283       .  A
O1009     Cd2176   2.153   1_554  S
Zn1010     O1021   2.064       .  S
Zn1010     O1023   1.978       .  S
Zn1010     O1015   1.911       .  S
O1011      C1022   1.263       .  A
O1011     Cd1016   1.995       .  S
Cd1012     O2173   2.153   1_456  S
Cd1012     O1014   2.202       .  S
Cd1012     O1015   1.995   1_556  S
Cd1013     O1017   2.046   1_554  S
Cd1013     O1026   2.087       .  S
Cd1013     O1015   1.964       .  S
O1014      C1024   1.296       .  A
O1015     Cd1016   1.950       .  S
Cd1016     O1018   2.011       .  S
O1017      C1024   1.270       .  A
C1019      O1023   1.272       .  A
C1020      C1162   1.486       .  S
C1020      O2168   1.273       .  A
C1025      C1075   1.472       .  S
C1025      O1026   1.277       .  A
O1027      C1043   1.274       .  A
C1028      O1044   1.273       .  A
C1028      O1041   1.269       .  A
O1029     Cd1036   2.011       .  S
O1030      C1048   1.276       .  A
O1030     Cd1039   2.080       .  S
O1031      C1045   1.296       .  A
O1032      C1043   1.284       .  A
O1032     Cd1035   2.154   1_556  S
Zn1033     O1044   1.985       .  S
Zn1033     O1038   1.912       .  S
O1034      C1045   1.270       .  A
O1034     Cd1039   2.045   1_554  S
Cd1035     O1037   2.122       .  S
Cd1036     O1049   2.023       .  S
Cd1036     O1038   1.952       .  S
O1037      C1047   1.287   1_554  A
O1038     Cd1039   1.964       .  S
Cd1039     O1041   2.033       .  S
O1040      C1047   1.261       .  A
C1042      O1046   1.277   1_545  A
C1047      C1071   1.459   1_556  S
C1048      O1049   1.269       .  A
O1050      C1066   1.273       .  A
O1050     Zn1056   1.986       .  S
C1051      O1064   1.284       .  A
O1052      C1065   1.267       .  A
O1052     Cd1059   2.011       .  S
O1053      C1071   1.287   1_556  A
O1053     Cd1062   2.122       .  S
O1054      C1068   1.270       .  A
O1054     Cd1058   2.045   1_556  S
O1055      C1066   1.269       .  A
O1055     Cd1058   2.033       .  S
Zn1056     O1067   2.015       .  S
Zn1056     O1069   2.064       .  S
Zn1056     O1061   1.912       .  S
O1057      C1068   1.296       .  A
O1057     Cd1062   2.209       .  S
Cd1058     O1060   2.080       .  S
Cd1058     O1061   1.964       .  S
Cd1059     O1063   2.023       .  S
Cd1059     O1072   1.993       .  S
Cd1059     O1061   1.952       .  S
O1060      C1070   1.276       .  A
O1061     Cd1062   1.995   1_554  S
O1063      C1070   1.269       .  A
C1065      O1069   1.277       .  A
C1066      C1156   1.449       .  S
C1070      C1077   1.469       .  S
C1071      O1072   1.261       .  A
C1073      C1125   1.471       .  S
C1073      C1074   1.399       .  A
C1073      C1078   1.404       .  A
C1074      C1075   1.406       .  A
C1074      H1079   1.084       .  S
C1075      C1076   1.398       .  A
C1076      C1077   1.405       .  A
C1076      H1080   1.084       .  S
C1077      C1078   1.398       .  A
C1078      H1081   1.084       .  S
O1082      C1098   1.273       .  A
O1082     Zn1088   2.019       .  S
C1083      O1099   1.271       .  A
C1083      O1096   1.270       .  A
O1084      C1097   1.267       .  A
O1084     Cd1091   2.006       .  S
O1085      C1103   1.275       .  A
O1085     Cd1094   2.079       .  S
O1086      C1100   1.296       .  A
O1086     Cd1090   2.204       .  S
O1087      C1098   1.283       .  A
O1087     Cd1090   2.153   1_556  S
Zn1088     O1099   1.995       .  S
Zn1088     O1101   2.066       .  S
Zn1088     O1093   1.921       .  S
O1089      C1100   1.273       .  A
O1089     Cd1094   2.053   1_554  S
Cd1090     O1092   2.121       .  S
Cd1090     O1093   1.997   1_554  S
Cd1091     O1095   1.996       .  S
Cd1091     O1104   2.030       .  S
Cd1091     O1093   1.954       .  S
O1092      C1102   1.287   1_554  A
O1093     Cd1094   1.958       .  S
Cd1094     O1096   2.044       .  S
O1095      C1102   1.262       .  A
C1097      O1101   1.278       .  A
C1100      N1158   1.458       .  S
C1102      C1126   1.460   1_556  S
C1103      O1104   1.269       .  A
O1105      C1121   1.271       .  A
O1105     Zn1111   1.995       .  S
C1106      O1122   1.273       .  A
C1106      O1119   1.283       .  A
O1107      C1120   1.267       .  A
O1107     Cd1114   2.006       .  S
O1108      C1126   1.287   1_556  A
O1108     Cd1117   2.121       .  S
O1109      C1123   1.274       .  A
O1109     Cd1113   2.053   1_556  S
O1110      C1121   1.270       .  A
O1110     Cd1113   2.045       .  S
Zn1111     O1122   2.019       .  S
Zn1111     O1124   2.065       .  S
Zn1111     O1116   1.921       .  S
O1112      C1123   1.296       .  A
O1112     Cd1117   2.204       .  S
Cd1113     O1115   2.079       .  S
Cd1113     O1116   1.958       .  S
Cd1114     O1118   2.030       .  S
Cd1114     O1127   1.996       .  S
Cd1114     O1116   1.954       .  S
O1115      C1125   1.275       .  A
O1116     Cd1117   1.997   1_554  S
Cd1117     O1119   2.153   1_556  S
O1118      C1125   1.269       .  A
C1120      O1124   1.278       .  A
C1126      O1127   1.262       .  A
N1128      C1132   1.372       .  A
N1128      C1129   1.369       .  A
C1129      C1151   1.475       .  S
C1129      C1130   1.380       .  A
C1130      C1131   1.359       .  A
C1130      H1133   1.083       .  S
C1131      C1132   1.379       .  A
C1131      H1134   1.081       .  S
O1135      C1151   1.282       .  A
O1135     Zn1141   2.036       .  S
C1136      C1159   1.475       .  S
C1136      O1152   1.282       .  A
C1136      O1149   1.270       .  A
O1137      C1150   1.266       .  A
O1137     Cd1144   2.039       .  S
O1138      C1156   1.274       .  A
O1138     Cd1147   2.063       .  S
O1139      C1153   1.277       .  A
O1139     Cd1143   2.083       .  S
O1140      C1151   1.270       .  A
O1140     Cd1143   2.082       .  S
Zn1141     O1152   2.036       .  S
Zn1141     O1154   2.111       .  S
Zn1141     O1146   1.915       .  S
O1142      C1153   1.277       .  A
O1142     Cd1147   2.083       .  S
Cd1143     O1145   2.063       .  S
Cd1143     O1146   2.032       .  S
Cd1144     O1148   2.013       .  S
Cd1144     O1157   2.013       .  S
Cd1144     O1146   1.976       .  S
O1145      C1155   1.274       .  A
O1146     Cd1147   2.032       .  S
Cd1147     O1149   2.083       .  S
O1148      C1155   1.267       .  A
C1150      O1154   1.282       .  A
C1156      O1157   1.267       .  A
N1158      C1162   1.372       .  A
N1158      C1159   1.369       .  A
C1159      C1160   1.380       .  A
C1160      C1161   1.359       .  A
C1160      H1163   1.083       .  S
C1161      C1162   1.379       .  A
C1161      H1164   1.081       .  S
C1165      N1166   1.361       .  A
C1165      N1170   1.361       .  A
C1165      C1624   1.462       .  S
N1166      C1167   1.354       .  A
C1167      N1168   1.354       .  A
C1167      C1894   1.475       .  S
N1168      C1169   1.361       .  A
C1169      N1170   1.361       .  A
C1169      C1431   1.462       .  S
C1171      N1172   1.361       .  A
C1171      N1176   1.361       .  A
C1171      C1454   1.462       .  S
N1172      C1173   1.354       .  A
C1173      N1174   1.354       .  A
C1173      C1349   1.475       .  S
N1174      C1175   1.361       .  A
C1175      N1176   1.361       .  A
C1175      C1647   1.462       .  S
C1177      N1178   1.361       .  A
C1177      N1182   1.360       .  A
C1177      C1702   1.460       .  S
N1178      C1179   1.353       .  A
C1179      N1180   1.353       .  A
C1179      C1735   1.476       .  S
N1180      C1181   1.361       .  A
C1181      N1182   1.360       .  A
C1181      C1509   1.460       .  S
C1183      N1184   1.360       .  A
C1183      N1188   1.361       .  A
C1183      C1679   1.460       .  S
N1184      C1185   1.360       .  A
C1185      N1186   1.361       .  A
C1185      C1486   1.460       .  S
N1186      C1187   1.353       .  A
C1187      N1188   1.353       .  A
C1187      C1542   1.475       .  S
C1189      N1190   1.360       .  A
C1189      N1194   1.362       .  A
C1189      C1579   1.461       .  S
N1190      C1191   1.351       .  A
C1191      N1192   1.351       .  A
N1192      C1193   1.360       .  A
C1193      N1194   1.362       .  A
C1193      C1371   1.461       .  S
C1195      N1196   1.360       .  A
C1195      N1200   1.362       .  A
C1195      C1587   1.461       .  S
N1196      C1197   1.351       .  A
C1197      N1198   1.351       .  A
C1197      C1235   1.462       .  S
N1198      C1199   1.360       .  A
C1199      N1200   1.362       .  A
C1199      C1409   1.461       .  S
C1201      N1784   1.366       .  A
C1201      N1206   1.367       .  A
C1201      C1346   1.490       .  S
N1202      C1783   1.366   1_545  A
N1202      C1203   1.367       .  A
C1203      C1238   1.486       .  S
N1204      C1205   1.365       .  A
C1205      C1732   1.490       .  S
C1207      N1208   1.366       .  A
C1207      C1309   1.490       .  S
C1209      N1210   1.361       .  A
N1210      C1793   1.365       .  A
C1211      N1792   1.365   1_545  A
C1211      N1212   1.359       .  A
C1211      C1539   1.490       .  S
N1213      C1217   1.369       .  A
N1213      C1214   1.364       .  A
N1213      C1584   1.455       .  S
C1214      C1236   1.471       .  S
C1214      C1215   1.380       .  A
C1215      C1216   1.363       .  A
C1215      H1218   1.083       .  S
C1216      C1217   1.380       .  A
C1216      H1219   1.081       .  S
C1217      C1633   1.486       .  S
O1220      C1236   1.278       .  A
C1221      C1244   1.471       .  S
C1221      O1237   1.278       .  A
O1222      C1235   1.273       .  A
O1222     Cd1229   2.082       .  S
O1223      C1241   1.267       .  A
O1223     Cd1232   2.030       .  S
O1224      C1238   1.278       .  A
O1224     Cd1228   2.107       .  S
O1225     Cd1228   2.085       .  S
Zn1226     O1239   2.006       .  S
Zn1226     O1231   1.935       .  S
O1227      C1238   1.278       .  A
O1227     Cd1232   2.106       .  S
Cd1228     O1230   2.030       .  S
Cd1228     O1231   2.012       .  S
Cd1229     O1233   2.066       .  S
Cd1229     O1242   2.066       .  S
Cd1229     O1231   2.001       .  S
O1230      C1240   1.267       .  A
O1231     Cd1232   2.012       .  S
Cd1232     O1234   2.085       .  S
O1233      C1240   1.274       .  A
C1235      O1239   1.269       .  A
C1240      C1703   1.443       .  S
C1241      C1495   1.443       .  S
C1241      O1242   1.274       .  A
N1243      C1247   1.369       .  A
N1243      C1244   1.364       .  A
N1243      C1390   1.455       .  S
C1244      C1245   1.380       .  A
C1245      C1246   1.363       .  A
C1245      H1248   1.083       .  S
C1246      C1247   1.380       .  A
C1246      H1249   1.081       .  S
C1247      C1455   1.486       .  S
N1250      C1254   1.369       .  A
N1250      C1251   1.364       .  A
N1250      C1414   1.455       .  S
C1251      C1273   1.471       .  S
C1251      C1252   1.380       .  A
C1252      C1253   1.363       .  A
C1252      H1255   1.083       .  S
C1253      C1254   1.380       .  A
C1253      H1256   1.081       .  S
C1254      C1417   1.486       .  S
O1257      C1273   1.278       .  A
O1257     Zn1263   2.024       .  S
C1258      C1281   1.471       .  S
C1258      O1274   1.278       .  A
C1258      O1271   1.275       .  A
O1259      C1272   1.273   1_655  A
O1259     Cd1266   2.082       .  S
O1260      C1278   1.267       .  A
O1260     Cd1269   2.030   1_655  S
O1261      C1275   1.278       .  A
O1261     Cd1265   2.106       .  S
O1262      C1273   1.275       .  A
Zn1263     O1274   2.025       .  S
Zn1263     O1276   2.006       .  S
O1264      C1275   1.278       .  A
O1264     Cd1269   2.106       .  S
Cd1265     O1267   2.030   1_455  S
Cd1265     O1268   2.012       .  S
Cd1266     O1270   2.066       .  S
Cd1266     O1279   2.066       .  S
Cd1266     O1268   2.001   1_655  S
O1267      C1277   1.267       .  A
O1268     Cd1269   2.012       .  S
O1270      C1277   1.274       .  A
C1277      C1487   1.443       .  S
C1278      C1665   1.443       .  S
C1278      O1279   1.274       .  A
N1280      C1284   1.369       .  A
N1280      C1281   1.364       .  A
N1280      C1606   1.455       .  S
C1281      C1282   1.380       .  A
C1282      C1283   1.363       .  A
C1282      H1285   1.083       .  S
C1283      C1284   1.380       .  A
C1283      H1286   1.081       .  S
C1284      C1625   1.486       .  S
N1287      C1291   1.367       .  A
N1287      C1288   1.372       .  A
N1287      C1457   1.457       .  S
C1288      C1472   1.487       .  S
C1288      C1289   1.379       .  A
C1289      C1290   1.360       .  A
C1289      H1292   1.080       .  S
C1290      C1291   1.380       .  A
C1290      H1293   1.083       .  S
C1291      C1295   1.472       .  S
O1294      C1310   1.281       .  A
O1294     Zn1300   2.029       .  S
C1295      O1311   1.281       .  A
C1295      O1308   1.269       .  A
O1296      C1891   1.268   1_545  A
O1296     Cd1303   2.045       .  S
O1297      C1315   1.273       .  A
O1297     Cd1306   2.055   1_545  S
O1298      C1312   1.277       .  A
O1298     Cd1302   2.082       .  S
O1299      C1310   1.270       .  A
O1299     Cd1884   2.079       .  S
Zn1300     O1311   2.029       .  S
Zn1300     O1313   2.107       .  S
Zn1300     O1887   1.914       .  S
O1301      C1312   1.277       .  A
O1301     Cd1306   2.082       .  S
Cd1302     O1881   2.079       .  S
Cd1302     O1304   2.055   1_565  S
Cd1302     O1305   2.029       .  S
Cd1303     O1307   2.020       .  S
Cd1303     O1316   2.020       .  S
Cd1303     O1305   1.977   1_545  S
O1304      C1314   1.273       .  A
O1305     Zn1882   1.914       .  S
O1305     Cd1306   2.029       .  S
Cd1306     O1890   2.079       .  S
O1307      C1314   1.269       .  A
O1308     Cd1888   2.079       .  S
C1309      O1878   1.268       .  A
C1309      O1313   1.281       .  A
C1310      C1321   1.472       .  S
C1312      C1749   1.475       .  S
C1314      C1578   1.447       .  S
C1315      C1385   1.447       .  S
C1315      O1316   1.269       .  A
N1317      C1321   1.367       .  A
N1317      C1318   1.372       .  A
N1317      C1650   1.457       .  S
C1318      C1680   1.487       .  S
C1318      C1319   1.379       .  A
C1319      C1320   1.360       .  A
C1319      H1322   1.080       .  S
C1320      C1321   1.380       .  A
C1320      H1323   1.083       .  S
N1324      C1328   1.367       .  A
N1324      C1325   1.372       .  A
N1324      C1627   1.457       .  S
C1325      C1688   1.487       .  S
C1325      C1326   1.379       .  A
C1326      C1327   1.360       .  A
C1326      H1329   1.080       .  S
C1327      C1328   1.380       .  A
C1327      H1330   1.083       .  S
C1328      C1332   1.472       .  S
O1331      C1347   1.281       .  A
O1331     Zn1919   2.029       .  S
C1332      O1348   1.281       .  A
C1332      O1927   1.269       .  A
O1333      C1346   1.268       .  A
O1333     Cd1340   2.045       .  S
O1334      C1352   1.273       .  A
O1334     Cd1343   2.055       .  S
O1335      C1349   1.277       .  A
O1335     Cd1339   2.082       .  S
O1336      C1929   1.269       .  A
O1336     Cd1339   2.079       .  S
Zn1337     O1913   2.029       .  S
Zn1337     O1930   2.029       .  S
Zn1337     O1350   2.107       .  S
Zn1337     O1342   1.914       .  S
O1338      C1349   1.277       .  A
O1338     Cd1343   2.082       .  S
Cd1339     O1341   2.055       .  S
Cd1339     O1342   2.029       .  S
Cd1340     O1344   2.020       .  S
Cd1340     O1353   2.020       .  S
Cd1340     O1342   1.977       .  S
O1341      C1351   1.273       .  A
O1342     Cd1343   2.029       .  S
Cd1343     O1345   2.079       .  S
O1344      C1351   1.269       .  A
O1345      C1914   1.269       .  A
C1346      O1350   1.281       .  A
C1347      C1358   1.472       .  S
C1347      O1918   1.269       .  A
O1348     Zn1919   2.029       .  S
C1351      C1408   1.447       .  S
C1352      C1601   1.447       .  S
C1352      O1353   1.269       .  A
N1354      C1358   1.367       .  A
N1354      C1355   1.372       .  A
N1354      C1434   1.457       .  S
C1355      C1510   1.487       .  S
C1355      C1356   1.379       .  A
C1356      C1357   1.360       .  A
C1356      H1359   1.080       .  S
C1357      C1358   1.380       .  A
C1357      H1360   1.083       .  S
C1361      C1491   1.471       .  S
C1361      C1362   1.404       .  A
C1361      C1366   1.399       .  A
C1362      C1363   1.398       .  A
C1362      H1367   1.084       .  S
C1363      C1436   1.469       .  S
C1363      C1364   1.405       .  A
C1364      C1365   1.398       .  A
C1364      H1368   1.084       .  S
C1365      C1391   1.472       .  S
C1365      C1366   1.406       .  A
C1366      H1369   1.084       .  S
O1370      C1386   1.273       .  A
C1371      O1387   1.277       .  A
O1372      C1385   1.270       .  A
O1372     Cd1379   2.035       .  S
O1373      C1391   1.268       .  A
O1373     Cd1382   2.022       .  S
O1374      C1388   1.286       .  A
O1374     Cd1378   2.118       .  S
O1375      C1386   1.283       .  A
O1375     Cd1378   2.153       .  S
Zn1376     O1389   1.978       .  S
Zn1376     O1381   1.911       .  S
O1377      C1388   1.263       .  A
Cd1379     O1383   2.046       .  S
Cd1379     O1392   2.087       .  S
Cd1379     O1381   1.964       .  S
O1380      C1390   1.296       .  A
O1381     Cd1382   1.950       .  S
Cd1382     O1384   2.011       .  S
O1383      C1390   1.270       .  A
C1385      O1389   1.272       .  A
C1386      C1521   1.486       .  S
C1388      C1411   1.458       .  S
C1391      O1392   1.277       .  A
O1393      C1409   1.277       .  A
O1393     Zn1399   2.064       .  S
C1394      C1714   1.486       .  S
C1394      O1407   1.283       .  A
O1395      C1408   1.270       .  A
O1395     Cd1402   2.034       .  S
O1396      C1414   1.296       .  A
O1396     Cd1405   2.202       .  S
O1397      C1411   1.263       .  A
O1397     Cd1401   1.996       .  S
O1398      C1409   1.267       .  A
O1398     Cd1401   2.010       .  S
Zn1399     O1410   2.018       .  S
Zn1399     O1412   1.978       .  S
Zn1399     O1404   1.911       .  S
O1400      C1411   1.286       .  A
O1400     Cd1405   2.118       .  S
Cd1401     O1403   2.022       .  S
Cd1401     O1404   1.950       .  S
Cd1402     O1406   2.087       .  S
Cd1402     O1415   2.046       .  S
Cd1402     O1404   1.964       .  S
O1403      C1413   1.268       .  A
O1404     Cd1405   1.995       .  S
O1406      C1413   1.277       .  A
C1408      O1412   1.272       .  A
C1413      C1464   1.472       .  S
C1414      O1415   1.271       .  A
O1416      C1432   1.273       .  A
O1416     Zn1422   1.986       .  S
C1417      O1433   1.274       .  A
C1417      O1430   1.284       .  A
O1418      C2013   1.267       .  A
O1418     Cd1425   2.011       .  S
O1419      C1437   1.287       .  A
O1419     Cd1428   2.122       .  S
O1420      C1434   1.270       .  A
O1420     Cd1424   2.045       .  S
O1421      C1432   1.269       .  A
O1421     Cd1424   2.033       .  S
Zn1422     O2015   2.015   1_545  S
Zn1422     O2017   2.064   1_545  S
Zn1422     O1427   1.912       .  S
O1423      C1434   1.296       .  A
O1423     Cd2010   2.209   1_545  S
Cd1424     O1426   2.080       .  S
Cd1424     O1427   1.964       .  S
Cd1425     O1429   2.023       .  S
Cd1425     O2020   1.993   1_545  S
Cd1425     O1427   1.952       .  S
O1426      C1436   1.276       .  A
O1427     Cd2010   1.995   1_545  S
Cd1428     O2005   2.209       .  S
Cd1428     O1430   2.153       .  S
Cd1428     O2009   1.995       .  S
O1429      C1436   1.269       .  A
C1431      O2000   1.267       .  A
C1431      O1435   1.277       .  A
C1432      C1545   1.449       .  S
O1433     Zn2004   2.015       .  S
O1435     Zn2004   2.064       .  S
C1437      C1459   1.459       .  S
C1437      O1438   1.261       .  A
O1438     Cd2007   1.993       .  S
O1439      C2037   1.274       .  A
O1439     Zn1445   2.015       .  S
C1440      C1737   1.448       .  S
C1440      O1456   1.273       .  A
C1440      O1453   1.269       .  A
O1441      C1454   1.267       .  A
O1441     Cd1448   2.011       .  S
O1442      C1460   1.276       .  A
O1442     Cd1451   2.080       .  S
O1443      C1457   1.296       .  A
O1443     Cd1447   2.209       .  S
O1444      C1455   1.284       .  A
O1444     Cd2029   2.154   1_545  S
Zn1445     O1456   1.986       .  S
Zn1445     O1458   2.064       .  S
Zn1445     O1450   1.912       .  S
O1446      C1457   1.270       .  A
O1446     Cd1451   2.045       .  S
Cd1447     O2026   2.154       .  S
Cd1447     O1449   2.122       .  S
Cd1447     O1450   1.995       .  S
Cd1448     O1452   1.993       .  S
Cd1448     O1461   2.023       .  S
Cd1448     O1450   1.952       .  S
O1449      C1459   1.287       .  A
O1450     Cd1451   1.964       .  S
Cd1451     O1453   2.033       .  S
O1452      C1459   1.261       .  A
C1454      O1458   1.277       .  A
C1455      O2021   1.274   1_545  A
C1460      C1466   1.469       .  S
C1460      O1461   1.269       .  A
C1462      C1515   1.471       .  S
C1462      C1463   1.399       .  A
C1462      C1467   1.404       .  A
C1463      C1464   1.406       .  A
C1463      H1468   1.084       .  S
C1464      C1465   1.398       .  A
C1465      C1466   1.405       .  A
C1465      H1469   1.084       .  S
C1466      C1467   1.398       .  A
C1467      H1470   1.084       .  S
O1471      C1487   1.271       .  A
O1471     Zn1477   1.995       .  S
C1472      O1488   1.273       .  A
C1472      O1485   1.283       .  A
O1473      C1486   1.267       .  A
O1473     Cd1480   2.006       .  S
O1474      C1492   1.287       .  A
O1474     Cd1483   2.121       .  S
O1475      C1489   1.274       .  A
O1475     Cd1479   2.054       .  S
O1476      C1487   1.270       .  A
O1476     Cd1479   2.045       .  S
Zn1477     O1488   2.019       .  S
Zn1477     O1490   2.065       .  S
Zn1477     O1482   1.921       .  S
O1478      C1489   1.296       .  A
O1478     Cd1483   2.204       .  S
Cd1479     O1481   2.079       .  S
Cd1479     O1482   1.958       .  S
Cd1480     O1484   2.030       .  S
Cd1480     O1493   1.996       .  S
Cd1480     O1482   1.954       .  S
O1481      C1491   1.275       .  A
O1482     Cd1483   1.997       .  S
Cd1483     O1485   2.153       .  S
O1484      C1491   1.269       .  A
C1486      O1490   1.278       .  A
C1489      N1710   1.458       .  S
C1492      C1514   1.460       .  S
C1492      O1493   1.262       .  A
O1494      C1510   1.273       .  A
O1494     Zn1500   2.019       .  S
C1495      O1511   1.271       .  A
C1495      O1508   1.270       .  A
O1496      C1509   1.267       .  A
O1496     Cd1503   2.005       .  S
O1497      C1515   1.275       .  A
O1497     Cd1506   2.079       .  S
O1498      C1512   1.296       .  A
O1498     Cd1502   2.204       .  S
O1499      C1510   1.283       .  A
O1499     Cd1502   2.153       .  S
Zn1500     O1511   1.995       .  S
Zn1500     O1513   2.066       .  S
Zn1500     O1505   1.921       .  S
O1501      C1512   1.274       .  A
O1501     Cd1506   2.053       .  S
Cd1502     O1504   2.121       .  S
Cd1502     O1505   1.997       .  S
Cd1503     O1507   1.996       .  S
Cd1503     O1516   2.029       .  S
Cd1503     O1505   1.954       .  S
O1504      C1514   1.287       .  A
O1505     Cd1506   1.958       .  S
Cd1506     O1508   2.045       .  S
O1507      C1514   1.262       .  A
C1509      O1513   1.278       .  A
C1512      N1517   1.458       .  S
C1515      O1516   1.269       .  A
N1517      C1521   1.372       .  A
N1517      C1518   1.369       .  A
C1518      C1525   1.475       .  S
C1518      C1519   1.380       .  A
C1519      C1520   1.359       .  A
C1519      H1522   1.083       .  S
C1520      C1521   1.379       .  A
C1520      H1523   1.081       .  S
O1524      C1540   1.282       .  A
O1524     Zn1530   2.036       .  S
C1525      O1541   1.282       .  A
C1525      O1538   1.270       .  A
O1526      C1539   1.266       .  A
O1526     Cd1533   2.039       .  S
O1527      C1545   1.274       .  A
O1527     Cd1536   2.063       .  S
O1528      C1542   1.277       .  A
O1528     Cd1532   2.083       .  S
O1529      C1540   1.270       .  A
O1529     Cd1532   2.082       .  S
Zn1530     O1541   2.036       .  S
Zn1530     O1543   2.111       .  S
Zn1530     O1535   1.915       .  S
O1531      C1542   1.277       .  A
O1531     Cd1536   2.083       .  S
Cd1532     O1534   2.063       .  S
Cd1532     O1535   2.032       .  S
Cd1533     O1537   2.013       .  S
Cd1533     O1546   2.013       .  S
Cd1533     O1535   1.976       .  S
O1534      C1544   1.274       .  A
O1535     Cd1536   2.032       .  S
Cd1536     O1538   2.083       .  S
O1537      C1544   1.267       .  A
C1539      O1543   1.282       .  A
C1540      C1548   1.475       .  S
C1544      C1610   1.448       .  S
C1545      O1546   1.267       .  A
N1547      C1551   1.372       .  A
N1547      C1548   1.369       .  A
N1547      C1705   1.458       .  S
C1548      C1549   1.380       .  A
C1549      C1550   1.359       .  A
C1549      H1552   1.083       .  S
C1550      C1551   1.379       .  A
C1550      H1553   1.081       .  S
C1551      C1564   1.486       .  S
C1554      C1685   1.471       .  S
C1554      C1555   1.404       .  A
C1554      C1559   1.399       .  A
C1555      C1556   1.398       .  A
C1555      H1560   1.084       .  S
C1556      C1630   1.469       .  S
C1556      C1557   1.405       .  A
C1557      C1558   1.398       .  A
C1557      H1561   1.084       .  S
C1558      C1583   1.472       .  S
C1558      C1559   1.406       .  A
C1559      H1562   1.084       .  S
O1563      C1579   1.277       .  A
C1564      O1580   1.273       .  A
C1564      O1577   1.283       .  A
O1565      C1578   1.270       .  A
O1565     Cd1572   2.034       .  S
O1566      C1584   1.296       .  A
O1567      C1581   1.263       .  A
O1568     Cd1571   2.010       .  S
Zn1569     O1582   1.978       .  S
Zn1569     O1574   1.911       .  S
O1570      C1581   1.286   1_554  A
O1570     Cd1575   2.118       .  S
Cd1571     O1573   2.022       .  S
Cd1571     O1574   1.950       .  S
Cd1572     O1576   2.087       .  S
Cd1572     O1585   2.046   1_556  S
Cd1572     O1574   1.964       .  S
O1573      C1583   1.268       .  A
Cd1575     O1577   2.152   1_554  S
O1576      C1583   1.277       .  A
C1578      O1582   1.272       .  A
C1581      C1604   1.458   1_556  S
C1584      O1585   1.271       .  A
O1586     Zn1592   2.018       .  S
C1587      O1603   1.277       .  A
C1587      O1600   1.267       .  A
O1588      C1601   1.270       .  A
O1588     Cd1595   2.035       .  S
O1589      C1607   1.268       .  A
O1589     Cd1598   2.022       .  S
O1590      C1604   1.286   1_556  A
O1590     Cd1594   2.118       .  S
O1591      C1602   1.283       .  A
Zn1592     O1603   2.064       .  S
Zn1592     O1605   1.978       .  S
Zn1592     O1597   1.911       .  S
O1593      C1604   1.263       .  A
O1593     Cd1598   1.995       .  S
Cd1594     O1596   2.202       .  S
Cd1594     O1597   1.995   1_556  S
Cd1595     O1599   2.046   1_554  S
Cd1595     O1608   2.087       .  S
Cd1595     O1597   1.964       .  S
O1596      C1606   1.296       .  A
O1597     Cd1598   1.950       .  S
Cd1598     O1600   2.011       .  S
O1599      C1606   1.270       .  A
C1601      O1605   1.272       .  A
C1602      C1744   1.486       .  S
C1607      C1657   1.472       .  S
C1607      O1608   1.277       .  A
O1609      C1625   1.274       .  A
O1609     Zn2197   2.015       .  S
C1610      O1626   1.273       .  A
C1610      O1623   1.269       .  A
O1611      C2206   1.267       .  A
O1611     Cd1618   2.011       .  S
O1612      C1630   1.276       .  A
O1612     Cd1621   2.080       .  S
O1613      C1627   1.296       .  A
O1613     Cd2199   2.209   1_545  S
O1614      C1625   1.284       .  A
O1614     Cd1617   2.154   1_556  S
Zn1615     O2191   2.015   1_545  S
Zn1615     O1626   1.985       .  S
Zn1615     O2210   2.064   1_545  S
Zn1615     O1620   1.912       .  S
O1616      C1627   1.270       .  A
O1616     Cd1621   2.045   1_554  S
Cd1617     O2195   2.209       .  S
Cd1617     O1619   2.122       .  S
Cd1617     O2202   1.995   1_554  S
Cd1618     O2204   1.993   1_545  S
Cd1618     O1631   2.023       .  S
Cd1618     O1620   1.952       .  S
O1619      C1629   1.287   1_554  A
O1620     Cd2199   1.995   1_546  S
O1620     Cd1621   1.964       .  S
Cd1621     O1623   2.033       .  S
O1622      C1629   1.261       .  A
O1622     Cd2200   1.993       .  S
C1624      O2193   1.267       .  A
C1624      O1628   1.277       .  A
O1628     Zn2197   2.064       .  S
C1629      C1653   1.459   1_556  S
C1630      O1631   1.269       .  A
O1632      C1648   1.273       .  A
O1632     Zn1638   1.986       .  S
C1633      O2231   1.274   1_545  A
C1633      O1646   1.284       .  A
O1634      C1647   1.267       .  A
O1634     Cd1641   2.011       .  S
O1635      C1653   1.287   1_556  A
O1635     Cd1644   2.122       .  S
O1636      C1650   1.270       .  A
O1636     Cd1640   2.045   1_556  S
O1637      C1648   1.269       .  A
O1637     Cd1640   2.033       .  S
Zn1638     O1649   2.015       .  S
Zn1638     O1651   2.064       .  S
Zn1638     O1643   1.912       .  S
O1639      C1650   1.296       .  A
O1639     Cd1644   2.209       .  S
Cd1640     O1642   2.080       .  S
Cd1640     O1643   1.964       .  S
Cd1641     O1645   2.023       .  S
Cd1641     O1654   1.993       .  S
Cd1641     O1643   1.952       .  S
O1642      C1652   1.276       .  A
O1643     Cd1644   1.995   1_554  S
Cd1644     O2228   2.153   1_556  S
O1645      C1652   1.269       .  A
O1646     Cd2226   2.153   1_544  S
C1647      O1651   1.277       .  A
C1648      C1738   1.449       .  S
O1649      C2215   1.274       .  A
C1652      C1659   1.469       .  S
C1653      O1654   1.261       .  A
C1655      C1707   1.471       .  S
C1655      C1656   1.399       .  A
C1655      C1660   1.404       .  A
C1656      C1657   1.406       .  A
C1656      H1661   1.084       .  S
C1657      C1658   1.398       .  A
C1658      C1659   1.405       .  A
C1658      H1662   1.084       .  S
C1659      C1660   1.398       .  A
C1660      H1663   1.084       .  S
O1664      C1680   1.273       .  A
O1664     Zn1670   2.019       .  S
C1665      O1681   1.271       .  A
C1665      O1678   1.270       .  A
O1666      C1679   1.267       .  A
O1666     Cd1673   2.006       .  S
O1667      C1685   1.275       .  A
O1667     Cd1676   2.079       .  S
O1668      C1682   1.296       .  A
O1668     Cd1672   2.204       .  S
O1669      C1680   1.283       .  A
O1669     Cd1672   2.153   1_556  S
Zn1670     O1681   1.995       .  S
Zn1670     O1683   2.066       .  S
Zn1670     O1675   1.921       .  S
O1671      C1682   1.273       .  A
O1671     Cd1676   2.053   1_554  S
Cd1672     O1674   2.121       .  S
Cd1672     O1675   1.997   1_554  S
Cd1673     O1677   1.996       .  S
Cd1673     O1686   2.030       .  S
Cd1673     O1675   1.954       .  S
O1674      C1684   1.287   1_554  A
O1675     Cd1676   1.958       .  S
Cd1676     O1678   2.044       .  S
O1677      C1684   1.262       .  A
C1679      O1683   1.278       .  A
C1682      N1740   1.458       .  S
C1684      C1708   1.460   1_556  S
C1685      O1686   1.269       .  A
O1687      C1703   1.271       .  A
O1687     Zn1693   1.995       .  S
C1688      O1704   1.273       .  A
C1688      O1701   1.283       .  A
O1689      C1702   1.267       .  A
O1689     Cd1696   2.006       .  S
O1690      C1708   1.287   1_556  A
O1690     Cd1699   2.121       .  S
O1691      C1705   1.274       .  A
O1691     Cd1695   2.053   1_556  S
O1692      C1703   1.270       .  A
O1692     Cd1695   2.045       .  S
Zn1693     O1704   2.019       .  S
Zn1693     O1706   2.065       .  S
Zn1693     O1698   1.921       .  S
O1694      C1705   1.296       .  A
O1694     Cd1699   2.204       .  S
Cd1695     O1697   2.079       .  S
Cd1695     O1698   1.958       .  S
Cd1696     O1700   2.030       .  S
Cd1696     O1709   1.996       .  S
Cd1696     O1698   1.954       .  S
O1697      C1707   1.275       .  A
O1698     Cd1699   1.997   1_554  S
Cd1699     O1701   2.153   1_556  S
O1700      C1707   1.269       .  A
C1702      O1706   1.278       .  A
C1708      O1709   1.262       .  A
N1710      C1714   1.372       .  A
N1710      C1711   1.369       .  A
C1711      C1733   1.475       .  S
C1711      C1712   1.380       .  A
C1712      C1713   1.359       .  A
C1712      H1715   1.083       .  S
C1713      C1714   1.379       .  A
C1713      H1716   1.081       .  S
O1717      C1733   1.282       .  A
O1717     Zn1723   2.036       .  S
C1718      C1741   1.475       .  S
C1718      O1734   1.282       .  A
C1718      O1731   1.270       .  A
O1719      C1732   1.266       .  A
O1719     Cd1726   2.039       .  S
O1720      C1738   1.274       .  A
O1720     Cd1729   2.063       .  S
O1721      C1735   1.277       .  A
O1721     Cd1725   2.083       .  S
O1722      C1733   1.270       .  A
O1722     Cd1725   2.082       .  S
Zn1723     O1734   2.036       .  S
Zn1723     O1736   2.111       .  S
Zn1723     O1728   1.915       .  S
O1724      C1735   1.277       .  A
O1724     Cd1729   2.083       .  S
Cd1725     O1727   2.063       .  S
Cd1725     O1728   2.032       .  S
Cd1726     O1730   2.013       .  S
Cd1726     O1739   2.013       .  S
Cd1726     O1728   1.976       .  S
O1727      C1737   1.274       .  A
O1728     Cd1729   2.032       .  S
Cd1729     O1731   2.083       .  S
O1730      C1737   1.267       .  A
C1732      O1736   1.282       .  A
C1738      O1739   1.267       .  A
N1740      C1744   1.372       .  A
N1740      C1741   1.369       .  A
C1741      C1742   1.380       .  A
C1742      C1743   1.359       .  A
C1742      H1745   1.083       .  S
C1743      C1744   1.379       .  A
C1743      H1746   1.081       .  S
C1747      N1748   1.361       .  A
C1747      N1752   1.361       .  A
C1747      C2206   1.462   1_565  S
N1748      C1749   1.354       .  A
C1749      N1750   1.354       .  A
N1750      C1751   1.361       .  A
C1751      N1752   1.361       .  A
C1751      C2013   1.462   1_565  S
C1753      N1754   1.361       .  A
C1753      N1758   1.361       .  A
C1753      C2036   1.462       .  S
N1754      C1755   1.354       .  A
C1755      N1756   1.354       .  A
C1755      C1931   1.475       .  S
N1756      C1757   1.361       .  A
C1757      N1758   1.361       .  A
C1757      C2229   1.462       .  S
C1759      N1760   1.361       .  A
C1759      N1764   1.360       .  A
C1759      C2284   1.460       .  S
N1760      C1761   1.353       .  A
C1761      N1762   1.353       .  A
C1761      C2317   1.476       .  S
N1762      C1763   1.361       .  A
C1763      N1764   1.360       .  A
C1763      C2091   1.460       .  S
C1765      N1766   1.360       .  A
C1765      N1770   1.361       .  A
C1765      C2261   1.460       .  S
N1766      C1767   1.360       .  A
C1767      N1768   1.361       .  A
C1767      C2068   1.460       .  S
N1768      C1769   1.353       .  A
C1769      N1770   1.353       .  A
C1769      C2124   1.475       .  S
C1771      N1772   1.360       .  A
C1771      N1776   1.362       .  A
C1771      C2161   1.461       .  S
N1772      C1773   1.351       .  A
C1773      N1774   1.351       .  A
N1774      C1775   1.360       .  A
C1775      N1776   1.362       .  A
C1775      C1953   1.461       .  S
C1777      N1778   1.360       .  A
C1777      N1782   1.362       .  A
C1777      C2169   1.461       .  S
N1778      C1779   1.351       .  A
C1779      N1780   1.351       .  A
C1779      C1817   1.462       .  S
N1780      C1781   1.360       .  A
C1781      N1782   1.362       .  A
C1781      C1991   1.461       .  S
C1783      N1788   1.367       .  A
C1783      C1928   1.490       .  S
N1784      C1785   1.367       .  A
C1785      C1820   1.486       .  S
N1786      C1787   1.365       .  A
C1787      C2314   1.490       .  S
C1789      N1790   1.366       .  A
C1789      C1891   1.490       .  S
C1791      N1792   1.361       .  A
C1793      N1794   1.359       .  A
C1793      C2121   1.490       .  S
N1795      C1799   1.369       .  A
N1795      C1796   1.364       .  A
N1795      C2166   1.455       .  S
C1796      C1818   1.471       .  S
C1796      C1797   1.380       .  A
C1797      C1798   1.363       .  A
C1797      H1800   1.083       .  S
C1798      C1799   1.380       .  A
C1798      H1801   1.081       .  S
C1799      C2215   1.486       .  S
O1802      C1818   1.278       .  A
C1803      C1826   1.471       .  S
C1803      O1819   1.278       .  A
O1804      C1817   1.273       .  A
O1804     Cd1811   2.082       .  S
O1805      C1823   1.267       .  A
O1805     Cd1814   2.030       .  S
O1806      C1820   1.278       .  A
O1806     Cd1810   2.107       .  S
O1807     Cd1810   2.085       .  S
Zn1808     O1821   2.006       .  S
Zn1808     O1813   1.935       .  S
O1809      C1820   1.278       .  A
O1809     Cd1814   2.106       .  S
Cd1810     O1812   2.030       .  S
Cd1810     O1813   2.012       .  S
Cd1811     O1815   2.066       .  S
Cd1811     O1824   2.066       .  S
Cd1811     O1813   2.001       .  S
O1812      C1822   1.267       .  A
O1813     Cd1814   2.012       .  S
Cd1814     O1816   2.085       .  S
O1815      C1822   1.274       .  A
C1817      O1821   1.269       .  A
C1822      C2285   1.443       .  S
C1823      C2077   1.443       .  S
C1823      O1824   1.274       .  A
N1825      C1829   1.369       .  A
N1825      C1826   1.364       .  A
N1825      C1972   1.455       .  S
C1826      C1827   1.380       .  A
C1827      C1828   1.363       .  A
C1827      H1830   1.083       .  S
C1828      C1829   1.380       .  A
C1828      H1831   1.081       .  S
C1829      C2037   1.486       .  S
N1832      C1836   1.369       .  A
N1832      C1833   1.364       .  A
N1832      C1996   1.455       .  S
C1833      C1855   1.471       .  S
C1833      C1834   1.380       .  A
C1834      C1835   1.363       .  A
C1834      H1837   1.083       .  S
C1835      C1836   1.380       .  A
C1835      H1838   1.081       .  S
C1836      C1999   1.486       .  S
O1839      C1855   1.278       .  A
O1839     Zn1845   2.024       .  S
C1840      C1863   1.471       .  S
C1840      O1856   1.278       .  A
C1840      O1853   1.275       .  A
O1841      C1854   1.273   1_655  A
O1841     Cd1848   2.082       .  S
O1842      C1860   1.267       .  A
O1842     Cd1851   2.030   1_655  S
O1843      C1857   1.278       .  A
O1843     Cd1847   2.106       .  S
O1844      C1855   1.275       .  A
Zn1845     O1856   2.025       .  S
Zn1845     O1858   2.006       .  S
O1846      C1857   1.278       .  A
O1846     Cd1851   2.106       .  S
Cd1847     O1849   2.030   1_455  S
Cd1847     O1850   2.012       .  S
Cd1848     O1852   2.066       .  S
Cd1848     O1861   2.066       .  S
Cd1848     O1850   2.001   1_655  S
O1849      C1859   1.267       .  A
O1850     Cd1851   2.012       .  S
O1852      C1859   1.274       .  A
C1859      C2069   1.443       .  S
C1860      C2247   1.443       .  S
C1860      O1861   1.274       .  A
N1862      C1866   1.369       .  A
N1862      C1863   1.364       .  A
N1862      C2188   1.455       .  S
C1863      C1864   1.380       .  A
C1864      C1865   1.363       .  A
C1864      H1867   1.083       .  S
C1865      C1866   1.380       .  A
C1865      H1868   1.081       .  S
C1866      C2207   1.486       .  S
N1869      C1873   1.367       .  A
N1869      C1870   1.372       .  A
N1869      C2039   1.457       .  S
C1870      C2054   1.487       .  S
C1870      C1871   1.379       .  A
C1871      C1872   1.360       .  A
C1871      H1874   1.080       .  S
C1872      C1873   1.380       .  A
C1872      H1875   1.083       .  S
C1873      C1877   1.472       .  S
O1876      C1892   1.281       .  A
O1876     Zn1882   2.029       .  S
C1877      O1893   1.281       .  A
C1877      O1890   1.269       .  A
O1878     Cd1885   2.045       .  S
O1879      C1897   1.273       .  A
O1879     Cd1888   2.055       .  S
O1880      C1894   1.277       .  A
O1880     Cd1884   2.082       .  S
O1881      C1892   1.270       .  A
Zn1882     O1893   2.029       .  S
Zn1882     O1895   2.107       .  S
O1883      C1894   1.277       .  A
O1883     Cd1888   2.082       .  S
Cd1884     O1886   2.055       .  S
Cd1884     O1887   2.029       .  S
Cd1885     O1889   2.020       .  S
Cd1885     O1898   2.020       .  S
Cd1885     O1887   1.977       .  S
O1886      C1896   1.273       .  A
O1887     Cd1888   2.029       .  S
O1889      C1896   1.269       .  A
C1891      O1895   1.281       .  A
C1892      C1903   1.472       .  S
C1896      C2160   1.447       .  S
C1897      C1967   1.447       .  S
C1897      O1898   1.269       .  A
N1899      C1903   1.367       .  A
N1899      C1900   1.372       .  A
N1899      C2232   1.457       .  S
C1900      C2262   1.487       .  S
C1900      C1901   1.379       .  A
C1901      C1902   1.360       .  A
C1901      H1904   1.080       .  S
C1902      C1903   1.380       .  A
C1902      H1905   1.083       .  S
N1906      C1910   1.367       .  A
N1906      C1907   1.372       .  A
N1906      C2209   1.457       .  S
C1907      C2270   1.487       .  S
C1907      C1908   1.379       .  A
C1908      C1909   1.360       .  A
C1908      H1911   1.080       .  S
C1909      C1910   1.380       .  A
C1909      H1912   1.083       .  S
C1910      C1914   1.472       .  S
O1913      C1929   1.281       .  A
C1914      O1930   1.281       .  A
O1915      C1928   1.268       .  A
O1915     Cd1922   2.045       .  S
O1916      C1934   1.273       .  A
O1916     Cd1925   2.055       .  S
O1917      C1931   1.277       .  A
O1917     Cd1921   2.082       .  S
O1918     Cd1921   2.079   1_545  S
Zn1919     O1932   2.107       .  S
Zn1919     O1924   1.914   1_545  S
O1920      C1931   1.277       .  A
O1920     Cd1925   2.082       .  S
Cd1921     O1923   2.055       .  S
Cd1921     O1924   2.029       .  S
Cd1922     O1926   2.020       .  S
Cd1922     O1935   2.020       .  S
Cd1922     O1924   1.977       .  S
O1923      C1933   1.273       .  A
O1924     Cd1925   2.029       .  S
Cd1925     O1927   2.079   1_565  S
O1926      C1933   1.269       .  A
C1928      O1932   1.281   1_565  A
C1929      C1940   1.472       .  S
C1933      C1990   1.447       .  S
C1934      C2183   1.447       .  S
C1934      O1935   1.269       .  A
N1936      C1940   1.367       .  A
N1936      C1937   1.372       .  A
N1936      C2016   1.457       .  S
C1937      C2092   1.487       .  S
C1937      C1938   1.379       .  A
C1938      C1939   1.360       .  A
C1938      H1941   1.080       .  S
C1939      C1940   1.380       .  A
C1939      H1942   1.083       .  S
C1943      C2073   1.471       .  S
C1943      C1944   1.404       .  A
C1943      C1948   1.399       .  A
C1944      C1945   1.398       .  A
C1944      H1949   1.084       .  S
C1945      C2018   1.469       .  S
C1945      C1946   1.405       .  A
C1946      C1947   1.398       .  A
C1946      H1950   1.084       .  S
C1947      C1973   1.472       .  S
C1947      C1948   1.406       .  A
C1948      H1951   1.084       .  S
O1952      C1968   1.273       .  A
C1953      O1969   1.277       .  A
O1954      C1967   1.270       .  A
O1954     Cd1961   2.035       .  S
O1955      C1973   1.268       .  A
O1955     Cd1964   2.022       .  S
O1956      C1970   1.286       .  A
O1956     Cd1960   2.118       .  S
O1957      C1968   1.283       .  A
O1957     Cd1960   2.153       .  S
Zn1958     O1971   1.978       .  S
Zn1958     O1963   1.911       .  S
O1959      C1970   1.263       .  A
Cd1961     O1965   2.046       .  S
Cd1961     O1974   2.087       .  S
Cd1961     O1963   1.964       .  S
O1962      C1972   1.296       .  A
O1963     Cd1964   1.950       .  S
Cd1964     O1966   2.011       .  S
O1965      C1972   1.270       .  A
C1967      O1971   1.272       .  A
C1968      C2103   1.486       .  S
C1970      C1993   1.458       .  S
C1973      O1974   1.277       .  A
O1975      C1991   1.277       .  A
O1975     Zn1981   2.064       .  S
C1976      C2296   1.486       .  S
C1976      O1989   1.283       .  A
O1977      C1990   1.270       .  A
O1977     Cd1984   2.034       .  S
O1978      C1996   1.296       .  A
O1978     Cd1987   2.202       .  S
O1979      C1993   1.263       .  A
O1979     Cd1983   1.996       .  S
O1980      C1991   1.267       .  A
O1980     Cd1983   2.010       .  S
Zn1981     O1992   2.018       .  S
Zn1981     O1994   1.978       .  S
Zn1981     O1986   1.911       .  S
O1982      C1993   1.286       .  A
O1982     Cd1987   2.118       .  S
Cd1983     O1985   2.022       .  S
Cd1983     O1986   1.950       .  S
Cd1984     O1988   2.087       .  S
Cd1984     O1997   2.046       .  S
Cd1984     O1986   1.964       .  S
O1985      C1995   1.268       .  A
O1986     Cd1987   1.995       .  S
O1988      C1995   1.277       .  A
C1990      O1994   1.272       .  A
C1995      C2046   1.472       .  S
C1996      O1997   1.271       .  A
O1998      C2014   1.273       .  A
O1998     Zn2004   1.986       .  S
C1999      O2015   1.274       .  A
C1999      O2012   1.284       .  A
O2000     Cd2007   2.011       .  S
O2001      C2019   1.287       .  A
O2001     Cd2010   2.122       .  S
O2002      C2016   1.270       .  A
O2002     Cd2006   2.045       .  S
O2003      C2014   1.269       .  A
O2003     Cd2006   2.033       .  S
Zn2004     O2009   1.912       .  S
O2005      C2016   1.296       .  A
Cd2006     O2008   2.080       .  S
Cd2006     O2009   1.964       .  S
Cd2007     O2011   2.023       .  S
Cd2007     O2009   1.952       .  S
O2008      C2018   1.276       .  A
Cd2010     O2012   2.153       .  S
O2011      C2018   1.269       .  A
C2013      O2017   1.277   1_545  A
C2014      C2127   1.449       .  S
C2019      C2041   1.459       .  S
C2019      O2020   1.261       .  A
O2021     Zn2027   2.015       .  S
C2022      C2319   1.448       .  S
C2022      O2038   1.273       .  A
C2022      O2035   1.269       .  A
O2023      C2036   1.267       .  A
O2023     Cd2030   2.011       .  S
O2024      C2042   1.276       .  A
O2024     Cd2033   2.080       .  S
O2025      C2039   1.296       .  A
O2025     Cd2029   2.209       .  S
O2026      C2037   1.284       .  A
Zn2027     O2038   1.986       .  S
Zn2027     O2040   2.064       .  S
Zn2027     O2032   1.912       .  S
O2028      C2039   1.270       .  A
O2028     Cd2033   2.045       .  S
Cd2029     O2031   2.122       .  S
Cd2029     O2032   1.995       .  S
Cd2030     O2034   1.993       .  S
Cd2030     O2043   2.023       .  S
Cd2030     O2032   1.952       .  S
O2031      C2041   1.287       .  A
O2032     Cd2033   1.964       .  S
Cd2033     O2035   2.033       .  S
O2034      C2041   1.261       .  A
C2036      O2040   1.277       .  A
C2042      C2048   1.469       .  S
C2042      O2043   1.269       .  A
C2044      C2097   1.471       .  S
C2044      C2045   1.399       .  A
C2044      C2049   1.404       .  A
C2045      C2046   1.406       .  A
C2045      H2050   1.084       .  S
C2046      C2047   1.398       .  A
C2047      C2048   1.405       .  A
C2047      H2051   1.084       .  S
C2048      C2049   1.398       .  A
C2049      H2052   1.084       .  S
O2053      C2069   1.271       .  A
O2053     Zn2059   1.995       .  S
C2054      O2070   1.273       .  A
C2054      O2067   1.283       .  A
O2055      C2068   1.267       .  A
O2055     Cd2062   2.006       .  S
O2056      C2074   1.287       .  A
O2056     Cd2065   2.121       .  S
O2057      C2071   1.274       .  A
O2057     Cd2061   2.054       .  S
O2058      C2069   1.270       .  A
O2058     Cd2061   2.045       .  S
Zn2059     O2070   2.019       .  S
Zn2059     O2072   2.065       .  S
Zn2059     O2064   1.921       .  S
O2060      C2071   1.296       .  A
O2060     Cd2065   2.204       .  S
Cd2061     O2063   2.079       .  S
Cd2061     O2064   1.958       .  S
Cd2062     O2066   2.030       .  S
Cd2062     O2075   1.996       .  S
Cd2062     O2064   1.954       .  S
O2063      C2073   1.275       .  A
O2064     Cd2065   1.997       .  S
Cd2065     O2067   2.153       .  S
O2066      C2073   1.269       .  A
C2068      O2072   1.278       .  A
C2071      N2292   1.458       .  S
C2074      C2096   1.460       .  S
C2074      O2075   1.262       .  A
O2076      C2092   1.273       .  A
O2076     Zn2082   2.019       .  S
C2077      O2093   1.271       .  A
C2077      O2090   1.270       .  A
O2078      C2091   1.267       .  A
O2078     Cd2085   2.005       .  S
O2079      C2097   1.275       .  A
O2079     Cd2088   2.079       .  S
O2080      C2094   1.296       .  A
O2080     Cd2084   2.204       .  S
O2081      C2092   1.283       .  A
O2081     Cd2084   2.153       .  S
Zn2082     O2093   1.995       .  S
Zn2082     O2095   2.066       .  S
Zn2082     O2087   1.921       .  S
O2083      C2094   1.274       .  A
O2083     Cd2088   2.053       .  S
Cd2084     O2086   2.121       .  S
Cd2084     O2087   1.997       .  S
Cd2085     O2089   1.996       .  S
Cd2085     O2098   2.029       .  S
Cd2085     O2087   1.954       .  S
O2086      C2096   1.287       .  A
O2087     Cd2088   1.958       .  S
Cd2088     O2090   2.045       .  S
O2089      C2096   1.262       .  A
C2091      O2095   1.278       .  A
C2094      N2099   1.458       .  S
C2097      O2098   1.269       .  A
N2099      C2103   1.372       .  A
N2099      C2100   1.369       .  A
C2100      C2107   1.475       .  S
C2100      C2101   1.380       .  A
C2101      C2102   1.359       .  A
C2101      H2104   1.083       .  S
C2102      C2103   1.379       .  A
C2102      H2105   1.081       .  S
O2106      C2122   1.282       .  A
O2106     Zn2112   2.036       .  S
C2107      O2123   1.282       .  A
C2107      O2120   1.270       .  A
O2108      C2121   1.266       .  A
O2108     Cd2115   2.039       .  S
O2109      C2127   1.274       .  A
O2109     Cd2118   2.063       .  S
O2110      C2124   1.277       .  A
O2110     Cd2114   2.083       .  S
O2111      C2122   1.270       .  A
O2111     Cd2114   2.082       .  S
Zn2112     O2123   2.036       .  S
Zn2112     O2125   2.111       .  S
Zn2112     O2117   1.915       .  S
O2113      C2124   1.277       .  A
O2113     Cd2118   2.083       .  S
Cd2114     O2116   2.063       .  S
Cd2114     O2117   2.032       .  S
Cd2115     O2119   2.013       .  S
Cd2115     O2128   2.013       .  S
Cd2115     O2117   1.976       .  S
O2116      C2126   1.274       .  A
O2117     Cd2118   2.032       .  S
Cd2118     O2120   2.083       .  S
O2119      C2126   1.267       .  A
C2121      O2125   1.282       .  A
C2122      C2130   1.475       .  S
C2126      C2192   1.448       .  S
C2127      O2128   1.267       .  A
N2129      C2133   1.372       .  A
N2129      C2130   1.369       .  A
N2129      C2287   1.458       .  S
C2130      C2131   1.380       .  A
C2131      C2132   1.359       .  A
C2131      H2134   1.083       .  S
C2132      C2133   1.379       .  A
C2132      H2135   1.081       .  S
C2133      C2146   1.486       .  S
C2136      C2267   1.471       .  S
C2136      C2137   1.404       .  A
C2136      C2141   1.399       .  A
C2137      C2138   1.398       .  A
C2137      H2142   1.084       .  S
C2138      C2212   1.469       .  S
C2138      C2139   1.405       .  A
C2139      C2140   1.398       .  A
C2139      H2143   1.084       .  S
C2140      C2165   1.472       .  S
C2140      C2141   1.406       .  A
C2141      H2144   1.084       .  S
O2145      C2161   1.277       .  A
C2146      O2162   1.273       .  A
C2146      O2159   1.283       .  A
O2147      C2160   1.270       .  A
O2147     Cd2154   2.034       .  S
O2148      C2166   1.296       .  A
O2149      C2163   1.263       .  A
O2150     Cd2153   2.010       .  S
Zn2151     O2164   1.978       .  S
Zn2151     O2156   1.911       .  S
O2152      C2163   1.286   1_554  A
O2152     Cd2157   2.118       .  S
Cd2153     O2155   2.022       .  S
Cd2153     O2156   1.950       .  S
Cd2154     O2158   2.087       .  S
Cd2154     O2167   2.046   1_556  S
Cd2154     O2156   1.964       .  S
O2155      C2165   1.268       .  A
Cd2157     O2159   2.152   1_554  S
O2158      C2165   1.277       .  A
C2160      O2164   1.272       .  A
C2163      C2186   1.458   1_556  S
C2166      O2167   1.271       .  A
O2168     Zn2174   2.018       .  S
C2169      O2185   1.277       .  A
C2169      O2182   1.267       .  A
O2170      C2183   1.270       .  A
O2170     Cd2177   2.035       .  S
O2171      C2189   1.268       .  A
O2171     Cd2180   2.022       .  S
O2172      C2186   1.286   1_556  A
O2172     Cd2176   2.118       .  S
O2173      C2184   1.283       .  A
Zn2174     O2185   2.064       .  S
Zn2174     O2187   1.978       .  S
Zn2174     O2179   1.911       .  S
O2175      C2186   1.263       .  A
O2175     Cd2180   1.995       .  S
Cd2176     O2178   2.202       .  S
Cd2176     O2179   1.995   1_556  S
Cd2177     O2181   2.046   1_554  S
Cd2177     O2190   2.087       .  S
Cd2177     O2179   1.964       .  S
O2178      C2188   1.296       .  A
O2179     Cd2180   1.950       .  S
Cd2180     O2182   2.011       .  S
O2181      C2188   1.270       .  A
C2183      O2187   1.272       .  A
C2184      C2326   1.486       .  S
C2189      C2239   1.472       .  S
C2189      O2190   1.277       .  A
O2191      C2207   1.274       .  A
C2192      O2208   1.273       .  A
C2192      O2205   1.269       .  A
O2193     Cd2200   2.011       .  S
O2194      C2212   1.276       .  A
O2194     Cd2203   2.080       .  S
O2195      C2209   1.296       .  A
O2196      C2207   1.284       .  A
O2196     Cd2199   2.154   1_556  S
Zn2197     O2208   1.985       .  S
Zn2197     O2202   1.912       .  S
O2198      C2209   1.270       .  A
O2198     Cd2203   2.045   1_554  S
Cd2199     O2201   2.122       .  S
Cd2200     O2213   2.023       .  S
Cd2200     O2202   1.952       .  S
O2201      C2211   1.287   1_554  A
O2202     Cd2203   1.964       .  S
Cd2203     O2205   2.033       .  S
O2204      C2211   1.261       .  A
C2206      O2210   1.277   1_545  A
C2211      C2235   1.459   1_556  S
C2212      O2213   1.269       .  A
O2214      C2230   1.273       .  A
O2214     Zn2220   1.986       .  S
C2215      O2228   1.284       .  A
O2216      C2229   1.267       .  A
O2216     Cd2223   2.011       .  S
O2217      C2235   1.287   1_556  A
O2217     Cd2226   2.122       .  S
O2218      C2232   1.270       .  A
O2218     Cd2222   2.045   1_556  S
O2219      C2230   1.269       .  A
O2219     Cd2222   2.033       .  S
Zn2220     O2231   2.015       .  S
Zn2220     O2233   2.064       .  S
Zn2220     O2225   1.912       .  S
O2221      C2232   1.296       .  A
O2221     Cd2226   2.209       .  S
Cd2222     O2224   2.080       .  S
Cd2222     O2225   1.964       .  S
Cd2223     O2227   2.023       .  S
Cd2223     O2236   1.993       .  S
Cd2223     O2225   1.952       .  S
O2224      C2234   1.276       .  A
O2225     Cd2226   1.995   1_554  S
O2227      C2234   1.269       .  A
C2229      O2233   1.277       .  A
C2230      C2320   1.449       .  S
C2234      C2241   1.469       .  S
C2235      O2236   1.261       .  A
C2237      C2289   1.471       .  S
C2237      C2238   1.399       .  A
C2237      C2242   1.404       .  A
C2238      C2239   1.406       .  A
C2238      H2243   1.084       .  S
C2239      C2240   1.398       .  A
C2240      C2241   1.405       .  A
C2240      H2244   1.084       .  S
C2241      C2242   1.398       .  A
C2242      H2245   1.084       .  S
O2246      C2262   1.273       .  A
O2246     Zn2252   2.019       .  S
C2247      O2263   1.271       .  A
C2247      O2260   1.270       .  A
O2248      C2261   1.267       .  A
O2248     Cd2255   2.006       .  S
O2249      C2267   1.275       .  A
O2249     Cd2258   2.079       .  S
O2250      C2264   1.296       .  A
O2250     Cd2254   2.204       .  S
O2251      C2262   1.283       .  A
O2251     Cd2254   2.153   1_556  S
Zn2252     O2263   1.995       .  S
Zn2252     O2265   2.066       .  S
Zn2252     O2257   1.921       .  S
O2253      C2264   1.273       .  A
O2253     Cd2258   2.053   1_554  S
Cd2254     O2256   2.121       .  S
Cd2254     O2257   1.997   1_554  S
Cd2255     O2259   1.996       .  S
Cd2255     O2268   2.030       .  S
Cd2255     O2257   1.954       .  S
O2256      C2266   1.287   1_554  A
O2257     Cd2258   1.958       .  S
Cd2258     O2260   2.044       .  S
O2259      C2266   1.262       .  A
C2261      O2265   1.278       .  A
C2264      N2322   1.458       .  S
C2266      C2290   1.460   1_556  S
C2267      O2268   1.269       .  A
O2269      C2285   1.271       .  A
O2269     Zn2275   1.995       .  S
C2270      O2286   1.273       .  A
C2270      O2283   1.283       .  A
O2271      C2284   1.267       .  A
O2271     Cd2278   2.006       .  S
O2272      C2290   1.287   1_556  A
O2272     Cd2281   2.121       .  S
O2273      C2287   1.274       .  A
O2273     Cd2277   2.053   1_556  S
O2274      C2285   1.270       .  A
O2274     Cd2277   2.045       .  S
Zn2275     O2286   2.019       .  S
Zn2275     O2288   2.065       .  S
Zn2275     O2280   1.921       .  S
O2276      C2287   1.296       .  A
O2276     Cd2281   2.204       .  S
Cd2277     O2279   2.079       .  S
Cd2277     O2280   1.958       .  S
Cd2278     O2282   2.030       .  S
Cd2278     O2291   1.996       .  S
Cd2278     O2280   1.954       .  S
O2279      C2289   1.275       .  A
O2280     Cd2281   1.997   1_554  S
Cd2281     O2283   2.153   1_556  S
O2282      C2289   1.269       .  A
C2284      O2288   1.278       .  A
C2290      O2291   1.262       .  A
N2292      C2296   1.372       .  A
N2292      C2293   1.369       .  A
C2293      C2315   1.475       .  S
C2293      C2294   1.380       .  A
C2294      C2295   1.359       .  A
C2294      H2297   1.083       .  S
C2295      C2296   1.379       .  A
C2295      H2298   1.081       .  S
O2299      C2315   1.282       .  A
O2299     Zn2305   2.036       .  S
C2300      C2323   1.475       .  S
C2300      O2316   1.282       .  A
C2300      O2313   1.270       .  A
O2301      C2314   1.266       .  A
O2301     Cd2308   2.039       .  S
O2302      C2320   1.274       .  A
O2302     Cd2311   2.063       .  S
O2303      C2317   1.277       .  A
O2303     Cd2307   2.083       .  S
O2304      C2315   1.270       .  A
O2304     Cd2307   2.082       .  S
Zn2305     O2316   2.036       .  S
Zn2305     O2318   2.111       .  S
Zn2305     O2310   1.915       .  S
O2306      C2317   1.277       .  A
O2306     Cd2311   2.083       .  S
Cd2307     O2309   2.063       .  S
Cd2307     O2310   2.032       .  S
Cd2308     O2312   2.013       .  S
Cd2308     O2321   2.013       .  S
Cd2308     O2310   1.976       .  S
O2309      C2319   1.274       .  A
O2310     Cd2311   2.032       .  S
Cd2311     O2313   2.083       .  S
O2312      C2319   1.267       .  A
C2314      O2318   1.282       .  A
C2320      O2321   1.267       .  A
N2322      C2326   1.372       .  A
N2322      C2323   1.369       .  A
C2323      C2324   1.380       .  A
C2324      C2325   1.359       .  A
C2324      H2327   1.083       .  S
C2325      C2326   1.379       .  A
C2325      H2328   1.081       .  S
