geometry optimzed in LAMMPS
_audit_creation_date              2020-11-30 
_audit_creation_method            'lammps2cif' 
_symmetry_space_group_name_H-M    'P1' 
_symmetry_Int_Tables_number       1 
_symmetry_cell_setting            triclinic 
loop_ 
_symmetry_equiv_pos_as_xyz 
  x,y,z 
_cell_length_a                    70.43770680316992 
_cell_length_b                    38.523528380800485 
_cell_length_c                    51.58988039155786 
_cell_angle_alpha                 89.79206626383353 
_cell_angle_beta                  90.59520227509269 
_cell_angle_gamma                 90.03107075891795 
loop_ 
_atom_site_label 
_atom_site_type_symbol 
_atom_site_fract_x 
_atom_site_fract_y 
_atom_site_fract_z 
_atom_site_charge 
In1        In  0.95185104  0.43282061  0.06776106     1.36870
C2          C  0.91532422  0.42917342  0.05492418     0.78450
O3          O  0.96338574  0.37801345  0.07141110    -0.59990
O4          O  0.95033089  0.40086233  0.10392936    -0.50900
C5          C  0.97639008  0.45178437  0.03165564     0.71120
O6          O  0.96044170  0.43858553  0.02622358    -0.45760
C7          C  0.95434235  0.49342800  0.09080043     0.75820
O8          O  0.92791959  0.41526313  0.04114440    -0.57620
O9          O  0.96354002  0.46732068  0.09892064    -0.47710
O10         O  0.92139903  0.44341737  0.07526355    -0.54050
C11         C  0.95804176  0.37442521  0.09450708     0.86000
O12         O  0.98039986  0.45153289  0.05549755    -0.55940
O13         O  0.94396799  0.48811952  0.07117255    -0.59240
In14       In  0.79739442  0.42930778  0.06380776     1.36870
C15         C  0.79725792  0.37603166  0.09598581     0.78450
O16         O  0.76908963  0.40792819  0.04991527    -0.59990
O17         O  0.79135029  0.41008283  0.02305049    -0.50900
C18         C  0.79118684  0.49046675  0.08759814     0.71120
O19         O  0.79247345  0.46165861  0.09886010    -0.45760
C20         C  0.83425520  0.43321618  0.05343758     0.75820
O21         O  0.78553695  0.40065939  0.09806736    -0.57620
O22         O  0.82204049  0.44886313  0.03958826    -0.47710
O23         O  0.80860039  0.37895443  0.07736132    -0.54050
C24         C  0.77491547  0.39927353  0.02789300     0.86000
O25         O  0.79167315  0.48803339  0.06318799    -0.55940
O26         O  0.82761085  0.41750591  0.07269487    -0.59240
In27       In  0.95521675  0.18117279  0.17089890     1.36870
C28         C  0.91807190  0.18376076  0.17904037     0.78450
O29         O  0.95780120  0.23956018  0.17366095    -0.59990
O30         O  0.96256589  0.21574815  0.13733874    -0.50900
C31         C  0.97808423  0.15390770  0.20760984     0.71120
O32         O  0.96062619  0.15899529  0.21056792    -0.45760
C33         C  0.95698108  0.12617643  0.14092413     0.75820
O34         O  0.92988509  0.19486619  0.19568499    -0.57620
O35         O  0.96852697  0.15101497  0.13846015    -0.47710
O36         O  0.92529135  0.17358695  0.15815608    -0.54050
C37         C  0.96102869  0.24350242  0.14982915     0.86000
O38         O  0.98419832  0.16722626  0.18699945    -0.55940
O39         O  0.94487641  0.12987172  0.15844456    -0.59240
In40       In  0.79925147  0.18180438  0.16891858     1.36870
C41         C  0.83639977  0.17748617  0.17814218     0.78450
O42         O  0.79173007  0.12470409  0.16917502    -0.59990
O43         O  0.79360860  0.15011363  0.13300389    -0.50900
C44         C  0.77489008  0.20026612  0.20549876     0.71120
O45         O  0.78883837  0.18058800  0.21036550    -0.45760
C46         C  0.79902464  0.24250215  0.14535610     0.75820
O47         O  0.82471734  0.18445292  0.19575298    -0.57620
O48         O  0.78763226  0.21860721  0.13896565    -0.47710
O49         O  0.82900738  0.17129649  0.15631263    -0.54050
C50         C  0.79129486  0.12177200  0.14478619     0.86000
O51         O  0.77235783  0.20695520  0.18184080    -0.55940
O52         O  0.81073472  0.23466840  0.16298733    -0.59240
In53       In  0.55174344  0.28587032  0.32075532     1.36870
C54         C  0.58882847  0.27863292  0.31461973     0.78450
O55         O  0.56073892  0.34041210  0.32715120    -0.59990
O56         O  0.54399995  0.31665602  0.35573069    -0.50900
C57         C  0.52743941  0.31085633  0.28506276     0.71120
O58         O  0.54485351  0.30668202  0.28085823    -0.45760
C59         C  0.54407871  0.22518127  0.34369483     0.75820
O60         O  0.57728047  0.27472506  0.29593524    -0.57620
O61         O  0.54155212  0.25426841  0.35408807    -0.47710
O62         O  0.58132659  0.28461962  0.33617144    -0.54050
C63         C  0.55277110  0.34353842  0.34870437     0.86000
O64         O  0.52200080  0.29796173  0.30621744    -0.55940
O65         O  0.54878497  0.22689411  0.32010513    -0.59240
In66       In  0.70842782  0.28749778  0.32428046     1.36870
C67         C  0.67078750  0.28555181  0.31730203     0.78450
O68         O  0.70066496  0.23447900  0.33641251    -0.59990
O69         O  0.72518918  0.25757885  0.35402443    -0.50900
C70         C  0.72967697  0.26564025  0.28499698     0.71120
O71         O  0.71401536  0.28082730  0.28137080    -0.45760
C72         C  0.71531599  0.34893233  0.34730360     0.75820
O73         O  0.68187822  0.29520810  0.29958732    -0.57620
O74         O  0.71062971  0.32186821  0.35919008    -0.47710
O75         O  0.67899160  0.27862809  0.33845652    -0.54050
C76         C  0.71407589  0.23190061  0.35265468     0.86000
O77         O  0.73511202  0.26433728  0.30826278    -0.55940
O78         O  0.71701581  0.34457004  0.32320919    -0.59240
In79       In  0.55080018  0.03441933  0.42692781     1.36870
C80         C  0.58821309  0.03912378  0.43244808     0.78450
O81         O  0.55782651  0.47804289  0.42714090    -0.59990
O82         O  0.54404118  0.49963312  0.39381904    -0.50900
C83         C  0.52460484  0.01732072  0.46176240     0.71120
O84         O  0.54108622  0.02736837  0.46807156    -0.45760
C85         C  0.54370731  0.09517806  0.40307065     0.75820
O86         O  0.57733094  0.04024190  0.45175079    -0.57620
O87         O  0.54292219  0.06620584  0.39190904    -0.47710
O88         O  0.57989153  0.03663766  0.41086410    -0.54050
C89         C  0.55126005  0.47327910  0.40465256     0.86000
O90         O  0.52101482  0.01997102  0.43783884    -0.55940
O91         O  0.54675360  0.09270785  0.42721344    -0.59240
In92       In  0.70813649  0.03926036  0.42783438     1.36870
C93         C  0.67053846  0.03500895  0.43050953     0.78450
O94         O  0.70210481  0.09543306  0.42565139    -0.59990
O95         O  0.71816595  0.07340105  0.39549535    -0.50900
C96         C  0.73095784  0.06252932  0.46531493     0.71120
O97         O  0.71354205  0.05670483  0.46861955    -0.45760
C98         C  0.71617406  0.47960031  0.40419802     0.75820
O99         O  0.68123636  0.02612306  0.44922293    -0.57620
O100        O  0.71798931  0.00900815  0.39379462    -0.47710
O101        O  0.67929303  0.04378093  0.41036020    -0.54050
C102        C  0.71114468  0.10055933  0.40511426     0.86000
O103        O  0.73721619  0.04987597  0.44456531    -0.55940
O104        O  0.71180229  0.48073289  0.42792601    -0.59240
In105      In  0.95818883  0.42759471  0.67346757     1.36870
C106        C  0.92078708  0.43263863  0.67512415     0.78450
O107        O  0.95829644  0.48597776  0.67686742    -0.59990
O108        O  0.97022208  0.46325024  0.64332290    -0.50900
C109        C  0.98061735  0.40304962  0.71100124     0.71120
O110        O  0.96285700  0.40452626  0.71301987    -0.45760
C111        C  0.95910482  0.37049398  0.64564452     0.75820
O112        O  0.93113000  0.43736018  0.69503438    -0.57620
O113        O  0.96928626  0.39641998  0.64011608    -0.47710
O114        O  0.92978661  0.42713423  0.65454654    -0.54050
C115        C  0.96531032  0.49066726  0.65468112     0.86000
O116        O  0.98712222  0.41832502  0.69137859    -0.55940
O117        O  0.94885380  0.37403294  0.66522857    -0.59240
In118      In  0.80056270  0.42755653  0.67237079     1.36870
C119        C  0.83822815  0.42596758  0.67449059     0.78450
O120        O  0.80122111  0.36919233  0.67094847    -0.59990
O121        O  0.78676766  0.39621762  0.64075340    -0.50900
C122        C  0.77642694  0.44296413  0.70996036     0.71120
O123        O  0.79256937  0.42995787  0.71457040    -0.45760
C124        C  0.79938137  0.48893655  0.64991105     0.75820
O125        O  0.82818953  0.42481493  0.69465432    -0.57620
O126        O  0.79293927  0.46194546  0.63915922    -0.47710
O127        O  0.82877632  0.42637021  0.65363419    -0.54050
C128        C  0.79283382  0.36759578  0.64924440     0.86000
O129        O  0.77201521  0.44380147  0.68627322    -0.55940
O130        O  0.80671628  0.48421288  0.67200393    -0.59240
In131      In  0.95600712  0.17765745  0.57076953     1.36870
C132        C  0.91827622  0.17261287  0.56957361     0.78450
O133        O  0.95878695  0.11903406  0.57109049    -0.59990
O134        O  0.96779852  0.14694940  0.60434187    -0.50900
C135        C  0.97812844  0.19783405  0.53200636     0.71120
O136        O  0.96281606  0.18159824  0.52800561    -0.45760
C137        C  0.95673426  0.23858547  0.59364332     0.75820
O138        O  0.92812540  0.17222724  0.54922224    -0.57620
O139        O  0.96700957  0.21359589  0.60121059    -0.47710
O140        O  0.92807174  0.17450979  0.59006370    -0.54050
C141        C  0.96457030  0.11783014  0.59430935     0.86000
O142        O  0.98312865  0.19964282  0.55541595    -0.55940
O143        O  0.94591522  0.23199856  0.57468931    -0.59240
In144      In  0.79770690  0.17832222  0.56979701     1.36870
C145        C  0.79618536  0.12063739  0.59725008     0.78450
O146        O  0.76845358  0.16711872  0.55418383    -0.59990
O147        O  0.79134364  0.16262525  0.52860199    -0.50900
C148        C  0.79154251  0.24189045  0.58802224     0.71120
O149        O  0.78456570  0.21507459  0.59821429    -0.45760
C150        C  0.83538230  0.17939463  0.56881314     0.75820
O151        O  0.78903066  0.14859901  0.60527891    -0.57620
O152        O  0.82535867  0.18519137  0.54874883    -0.47710
O153        O  0.80375741  0.12219686  0.57530482    -0.54050
C154        C  0.77391785  0.15725086  0.53225120     0.86000
O155        O  0.80012621  0.23662233  0.56706099    -0.55940
O156        O  0.82591782  0.17446532  0.58907454    -0.59240
In157      In  0.54750836  0.04649108  0.82736252     1.36870
C158        C  0.58525796  0.04493204  0.82207263     0.78450
O159        O  0.55202812  0.10288850  0.83213261    -0.59990
O160        O  0.53618732  0.07589791  0.86107350    -0.50900
C161        C  0.52384887  0.06898142  0.79008143     0.71120
O162        O  0.54059372  0.05910229  0.78558509    -0.45760
C163        C  0.54167086  0.48599838  0.85183144     0.75820
O164        O  0.57423614  0.03027394  0.80597394    -0.57620
O165        O  0.54616456  0.01375424  0.86302382    -0.47710
O166        O  0.57677127  0.06002425  0.84007485    -0.54050
C167        C  0.54316913  0.10421381  0.85319778     0.86000
O168        O  0.51859835  0.06240655  0.81287205    -0.55940
O169        O  0.53887925  0.98916212  0.82768841    -0.59240
In170      In  0.70551826  0.03505821  0.82207707     1.36870
C171        C  0.66793285  0.04155905  0.81879142     0.78450
O172        O  0.70266816  0.47768782  0.82278199    -0.59990
O173        O  0.70925014  0.50390381  0.85817333    -0.50900
C174        C  0.72899302  0.01576901  0.78452099     0.71120
O175        O  0.71199347  0.02455015  0.78021053    -0.45760
C176        C  0.71552753  0.09440132  0.84522820     0.75820
O177        O  0.67861961  0.05164762  0.80073189    -0.57620
O178        O  0.72064331  0.06501809  0.85341584    -0.47710
O179        O  0.67662519  0.02796992  0.83764532    -0.54050
C180        C  0.70622922  0.47548907  0.84672514     0.86000
O181        O  0.73434617  0.02105622  0.80753661    -0.55940
O182        O  0.70657622  0.09329479  0.82394918    -0.59240
In183      In  0.54917841  0.29475336  0.93117970     1.36870
C184        C  0.58696956  0.29558495  0.93313310     0.78450
O185        O  0.55136734  0.23772960  0.92947163    -0.59990
O186        O  0.54263015  0.26412595  0.89534613    -0.50900
C187        C  0.52551038  0.27364309  0.96805093     0.71120
O188        O  0.54287206  0.27963092  0.97240541    -0.45760
C189        C  0.54126279  0.35716311  0.91126456     0.75820
O190        O  0.57704310  0.30040347  0.95306858    -0.57620
O191        O  0.53617889  0.32925783  0.90060423    -0.47710
O192        O  0.57754337  0.29167397  0.91249989    -0.54050
C193        C  0.54625423  0.23538047  0.90613328     0.86000
O194        O  0.51986431  0.28373808  0.94599063    -0.55940
O195        O  0.54872615  0.35318735  0.93347567    -0.59240
In196      In  0.70680340  0.28407558  0.92479219     1.36870
C197        C  0.70618184  0.34337095  0.89934254     0.78450
O198        O  0.67768714  0.28479750  0.90781078    -0.59990
O199        O  0.68007626  0.27765939  0.94843785    -0.50900
C200        C  0.71624694  0.22356099  0.90359417     0.71120
O201        O  0.72109268  0.25259662  0.89461423    -0.45760
C202        C  0.73200667  0.30756112  0.95914353     0.75820
O203        O  0.70961543  0.31488654  0.88831351    -0.57620
O204        O  0.71592759  0.29620368  0.96579475    -0.47710
O205        O  0.70282494  0.34094708  0.92318402    -0.54050
C206        C  0.66917760  0.28213476  0.92905511     0.86000
O207        O  0.70802964  0.22530984  0.92522588    -0.55940
O208        O  0.73608078  0.30161181  0.93587616    -0.59240
In209      In  0.04719801  0.29290791  0.81966215     1.36870
C210        C  0.08402966  0.28264424  0.81464411     0.78450
O211        O  0.05834260  0.34205100  0.83549587    -0.59990
O212        O  0.03023492  0.32713846  0.84573631    -0.50900
C213        C  0.02747893  0.31925509  0.78004806     0.71120
O214        O  0.04521655  0.32216422  0.78218990    -0.45760
C215        C  0.03907218  0.23420074  0.84401837     0.75820
O216        O  0.07251002  0.27597707  0.79634102    -0.57620
O217        O  0.03983434  0.26321074  0.85505862    -0.47710
O218        O  0.07661986  0.29312977  0.83526327    -0.54050
C219        C  0.04348061  0.34903197  0.84769836     0.86000
O220        O  0.02008107  0.29920787  0.79650095    -0.55940
O221        O  0.04074915  0.23528562  0.81964884    -0.59240
In222      In  0.20341294  0.28134045  0.82620825     1.36870
C223        C  0.16592792  0.28341051  0.81968457     0.78450
O224        O  0.19814942  0.22478515  0.83015269    -0.59990
O225        O  0.21674089  0.24916915  0.85740408    -0.50900
C226        C  0.22625057  0.26412631  0.78759331     0.71120
O227        O  0.20884483  0.27054339  0.78421215    -0.45760
C228        C  0.20955293  0.33992925  0.85237913     0.75820
O229        O  0.17712702  0.29647755  0.80333429    -0.57620
O230        O  0.20570229  0.31135669  0.86287432    -0.47710
O231        O  0.17403054  0.27088231  0.83942304    -0.54050
C232        C  0.20861501  0.22169188  0.84997191     0.86000
O233        O  0.23232177  0.27056112  0.81015373    -0.55940
O234        O  0.21121903  0.33859492  0.82803493    -0.59240
In235      In  0.04884310  0.04220892  0.92132970     1.36870
C236        C  0.08643930  0.04191926  0.92533317     0.78450
O237        O  0.05193409  0.48508511  0.92215026    -0.59990
O238        O  0.04191628  0.50869819  0.88738551    -0.50900
C239        C  0.02427800  0.02525974  0.95786442     0.71120
O240        O  0.04061130  0.03701431  0.96303191    -0.45760
C241        C  0.04086828  0.10373893  0.90035367     0.75820
O242        O  0.07593551  0.04678965  0.94465132    -0.57620
O243        O  0.03792958  0.07557760  0.88868028    -0.47710
O244        O  0.07764681  0.03925436  0.90407785    -0.54050
C245        C  0.04608653  0.48090258  0.89922219     0.86000
O246        O  0.01991198  0.02665728  0.93413397    -0.55940
O247        O  0.04658795  0.10018178  0.92346378    -0.59240
In248      In  0.20578287  0.03159785  0.92926281     1.36870
C249        C  0.16832787  0.02900044  0.93038095     0.78450
O250        O  0.19727664  0.08592373  0.92170750    -0.59990
O251        O  0.21856878  0.06408603  0.89793039    -0.50900
C252        C  0.22880717  0.05396719  0.96682552     0.71120
O253        O  0.21152296  0.04731601  0.97064544    -0.45760
C254        C  0.21249253  0.46874821  0.91024859     0.75820
O255        O  0.17834191  0.02709637  0.95083461    -0.57620
O256        O  0.21518214  0.49628918  0.89760999    -0.47710
O257        O  0.17755573  0.03070688  0.90961205    -0.54050
C258        C  0.20877594  0.09040049  0.90351166     0.86000
O259        O  0.23470026  0.04440346  0.94501903    -0.55940
O260        O  0.20784665  0.47339867  0.93358125    -0.59240
In261      In  0.45592697  0.16864957  0.07528562     1.36870
C262        C  0.41832926  0.16354937  0.07171757     0.78450
O263        O  0.45674491  0.10982263  0.07714082    -0.59990
O264        O  0.46714381  0.13788469  0.10929491    -0.50900
C265        C  0.47996023  0.18858632  0.03832126     0.71120
O266        O  0.46244081  0.18434584  0.03419987    -0.45760
C267        C  0.45731818  0.22861626  0.09949675     0.75820
O268        O  0.42898464  0.15240502  0.05399677    -0.57620
O269        O  0.46314287  0.20081923  0.10990279    -0.47710
O270        O  0.42706198  0.17708405  0.09049334    -0.54050
C271        C  0.46297129  0.10851579  0.10020219     0.86000
O272        O  0.48546363  0.17755586  0.06017940    -0.55940
O273        O  0.45108784  0.22569625  0.07664441    -0.59240
In274      In  0.29792091  0.15673324  0.07660551     1.36870
C275        C  0.33553802  0.16133266  0.07320900     0.78450
O276        O  0.29579639  0.21544115  0.07728271    -0.59990
O277        O  0.28929196  0.18744711  0.11153209    -0.50900
C278        C  0.27437864  0.13616195  0.03893465     0.71120
O279        O  0.29186397  0.14078256  0.03534410    -0.45760
C280        C  0.29551146  0.09677873  0.10115962     0.75820
O281        O  0.32462027  0.17325422  0.05568981    -0.57620
O282        O  0.28647332  0.12334303  0.10830131    -0.47710
O283        O  0.32690491  0.14783308  0.09194173    -0.54050
C284        C  0.29155986  0.21662171  0.10098538     0.86000
O285        O  0.26863717  0.14690886  0.06049774    -0.55940
O286        O  0.30575769  0.10130153  0.08156118    -0.59240
In287      In  0.45354023  0.41687097  0.18223653     1.36870
C288        C  0.45440543  0.35875604  0.15477156     0.78450
O289        O  0.48318620  0.40635922  0.19766653    -0.59990
O290        O  0.46014318  0.39980811  0.22318968    -0.50900
C291        C  0.46166697  0.47877035  0.16058223     0.71120
O292        O  0.46839659  0.45035892  0.15292470    -0.45760
C293        C  0.41618198  0.41895572  0.18798179     0.75820
O294        O  0.45631254  0.38831570  0.14455939    -0.57620
O295        O  0.42744630  0.42475638  0.20668415    -0.47710
O296        O  0.45210318  0.35945781  0.17887067    -0.54050
C297        C  0.47758306  0.39512309  0.21928600     0.86000
O298        O  0.45226937  0.47586112  0.18122133    -0.55940
O299        O  0.42403083  0.41336971  0.16659889    -0.59240
In300      In  0.29678979  0.40630521  0.18179815     1.36870
C301        C  0.33433623  0.40631505  0.18652561     0.78450
O302        O  0.29778283  0.34753153  0.18362067    -0.59990
O303        O  0.28506114  0.37131801  0.15067206    -0.50900
C304        C  0.27211510  0.43023153  0.21644813     0.71120
O305        O  0.28883569  0.42161081  0.22264972    -0.45760
C306        C  0.29574892  0.46500314  0.15532562     0.75820
O307        O  0.32369610  0.39978891  0.20556794    -0.57620
O308        O  0.28841189  0.43736146  0.14672177    -0.47710
O309        O  0.32569007  0.41032078  0.16521085    -0.54050
C310        C  0.29060787  0.34361941  0.16128246     0.86000
O311        O  0.26728704  0.42099405  0.19394681    -0.55940
O312        O  0.30389602  0.46196256  0.17703296    -0.59240
In313      In  0.45473811  0.17457851  0.67934870     1.36870
C314        C  0.41705050  0.17825446  0.68067374     0.78450
O315        O  0.45678953  0.23345870  0.67871235    -0.59990
O316        O  0.46377006  0.20593618  0.64490457    -0.50900
C317        C  0.47766264  0.15352912  0.71824374     0.71120
O318        O  0.46044004  0.16113924  0.72143471    -0.45760
C319        C  0.45732701  0.11525468  0.65452645     0.75820
O320        O  0.42729930  0.18877822  0.69935033    -0.57620
O321        O  0.46664557  0.14178920  0.64782752    -0.47710
O322        O  0.42626835  0.16624207  0.66199433    -0.54050
C323        C  0.46108253  0.23514968  0.65502006     0.86000
O324        O  0.48351760  0.16140030  0.69600172    -0.55940
O325        O  0.44690103  0.11937915  0.67399395    -0.59240
In326      In  0.29652167  0.17909544  0.67221274     1.36870
C327        C  0.33425311  0.17684294  0.67617556     0.78450
O328        O  0.29915211  0.12095561  0.66965395    -0.59990
O329        O  0.28223068  0.14639939  0.64131545    -0.50900
C330        C  0.27386326  0.19560627  0.71142801     0.71120
O331        O  0.29143487  0.19078269  0.71421086    -0.45760
C332        C  0.29366725  0.23841584  0.64656488     0.75820
O333        O  0.32357649  0.16402197  0.69325302    -0.57620
O334        O  0.28941815  0.20960351  0.63643982    -0.47710
O335        O  0.32539272  0.19032312  0.65737399    -0.54050
C336        C  0.28969793  0.11840497  0.64888008     0.86000
O337        O  0.26759985  0.18778296  0.68924751    -0.55940
O338        O  0.29937059  0.23661652  0.66976322    -0.59240
In339      In  0.45151521  0.42710686  0.57312560     1.36870
C340        C  0.41432744  0.42444331  0.56441383     0.78450
O341        O  0.45863297  0.36945137  0.57228557    -0.59990
O342        O  0.45534215  0.39394186  0.60835969    -0.50900
C343        C  0.47637084  0.44658574  0.53707968     0.71120
O344        O  0.46010336  0.43487296  0.53144896    -0.45760
C345        C  0.45396329  0.48569058  0.59910141     0.75820
O346        O  0.42601361  0.42695763  0.54613698    -0.57620
O347        O  0.46356746  0.45925497  0.60515652    -0.47710
O348        O  0.42169099  0.42199215  0.58665770    -0.54050
C349        C  0.45846232  0.36600562  0.59669083     0.86000
O350        O  0.48055989  0.44418915  0.56082293    -0.55940
O351        O  0.44300763  0.48196061  0.57989366    -0.59240
In352      In  0.29496682  0.43009298  0.56629073     1.36870
C353        C  0.33249137  0.43223280  0.56259188     0.78450
O354        O  0.29412687  0.98890850  0.56517705    -0.59990
O355        O  0.28446563  0.46333765  0.59897346    -0.50900
C356        C  0.27194133  0.40696713  0.52872719     0.71120
O357        O  0.28889380  0.41562026  0.52461314    -0.45760
C358        C  0.29317917  0.37049476  0.59200207     0.75820
O359        O  0.32173923  0.44140532  0.54401287    -0.57620
O360        O  0.28392580  0.39701330  0.59871484    -0.47710
O361        O  0.32400173  0.42405010  0.58311539    -0.54050
C362        C  0.28834900  0.99170616  0.58813556     0.86000
O363        O  0.26607782  0.41524862  0.55082154    -0.55940
O364        O  0.30346792  0.37533320  0.57251954    -0.59240
In365      In  0.04675352  0.04062995  0.31289101     1.36870
C366        C  0.04455581  0.09719521  0.34124273     0.78450
O367        O  0.07604333  0.05142319  0.32747387    -0.59990
O368        O  0.07302927  0.03370428  0.28872523    -0.50900
C369        C  0.03967919  0.47805554  0.33322032     0.71120
O370        O  0.03059300  0.50474910  0.33959631    -0.45760
C371        C  0.02294907  0.06174469  0.27541959     0.75820
O372        O  0.04453616  0.06728093  0.35135045    -0.57620
O373        O  0.03969648  0.05203194  0.27100771    -0.47710
O374        O  0.04587406  0.09786497  0.31695125    -0.54050
C375        C  0.08407215  0.04431195  0.30646878     0.86000
O376        O  0.05092023  0.48267816  0.31469719    -0.55940
O377        O  0.01780137  0.05537793  0.29826055    -0.59240
In378      In  0.20269427  0.04994831  0.31444645     1.36870
C379        C  0.20129035  0.49153925  0.34164768     0.78450
O380        O  0.17287794  0.05084146  0.32829987    -0.59990
O381        O  0.17738771  0.05823856  0.28789882    -0.50900
C382        C  0.21031237  0.11083200  0.33758367     0.71120
O383        O  0.21412738  0.08166155  0.34728122    -0.45760
C384        C  0.22772393  0.02424453  0.28088922     0.75820
O385        O  0.20891257  0.01890120  0.35009386    -0.57620
O386        O  0.21150729  0.03480868  0.27396784    -0.47710
O387        O  0.19404301  0.49491130  0.31940023    -0.54050
C388        C  0.16563291  0.05506935  0.30609763     0.86000
O389        O  0.20430030  0.10912894  0.31443148    -0.55940
O390        O  0.23209471  0.03221804  0.30382465    -0.59240
In391      In  0.04564977  0.29020222  0.41702456     1.36870
C392        C  0.08322883  0.29379469  0.42124800     0.78450
O393        O  0.05214634  0.23392473  0.41601179    -0.59990
O394        O  0.03946275  0.25686342  0.38267620    -0.50900
C395        C  0.02157251  0.27014622  0.45364307     0.71120
O396        O  0.03754341  0.28323990  0.45900106    -0.45760
C397        C  0.03813131  0.35132532  0.39465344     0.75820
O398        O  0.07249158  0.29823782  0.44043345    -0.57620
O399        O  0.03250661  0.32299498  0.38521143    -0.47710
O400        O  0.07459005  0.28877445  0.40009377    -0.54050
C401        C  0.04552668  0.22948622  0.39349102     0.86000
O402        O  0.01700778  0.27143257  0.43001608    -0.55940
O403        O  0.04566051  0.34869521  0.41685377    -0.59240
In404      In  0.20276780  0.30063331  0.42139187     1.36870
C405        C  0.16546222  0.29493810  0.42521732     0.78450
O406        O  0.19529530  0.35680564  0.42028641    -0.59990
O407        O  0.20849092  0.33435516  0.38740021    -0.50900
C408        C  0.22824678  0.32106488  0.45677327     0.71120
O409        O  0.21184523  0.31075189  0.46277613    -0.45760
C410        C  0.21046597  0.24010554  0.39797199     0.75820
O411        O  0.17623638  0.29247152  0.44490728    -0.57620
O412        O  0.21450060  0.26939394  0.38865047    -0.47710
O413        O  0.17384189  0.29956182  0.40405602    -0.54050
C414        C  0.20155729  0.36106553  0.39773726     0.86000
O415        O  0.23232989  0.31590948  0.43339565    -0.55940
O416        O  0.20404758  0.24189607  0.42073148    -0.59240
C417        C  0.10432452  0.29348472  0.42322620    -0.04460
C418        C  0.11491395  0.27005147  0.40795583    -0.01580
C419        C  0.13487418  0.26961228  0.40963383     0.03410
C420        C  0.14451621  0.29283923  0.42622188    -0.04460
C421        C  0.13408536  0.31627088  0.44147992    -0.01570
C422        C  0.11403919  0.31658126  0.44003862     0.03400
C423        C  0.10543342  0.24617977  0.39036466     0.38050
C424        C  0.14400708  0.34151323  0.45744573     0.38040
C425        C  0.10354969  0.34224478  0.45460134     0.36470
C426        C  0.14557087  0.24488136  0.39438755     0.36470
N427        N  0.09519096  0.36287466  0.46607326    -0.38350
N428        N  0.15415848  0.22521074  0.38231565    -0.38350
N429        N  0.15192791  0.36178531  0.47004769    -0.37800
N430        N  0.09803302  0.22733156  0.37605477    -0.37800
C431        C  0.21172133  0.14383556  0.35302432    -0.04460
C432        C  0.20901645  0.14314046  0.38027332    -0.01580
C433        C  0.20949258  0.17408673  0.39498309     0.03410
C434        C  0.21209202  0.20676591  0.38275662    -0.04460
C435        C  0.21487506  0.20736553  0.35541761    -0.01570
C436        C  0.21482283  0.17622519  0.34083333     0.03400
C437        C  0.20461070  0.11073304  0.39339457     0.38050
C438        C  0.21723593  0.24001019  0.34166839     0.38040
C439        C  0.21805041  0.17776372  0.31310734     0.36470
C440        C  0.20706205  0.17176749  0.42285628     0.36470
N441        N  0.22061106  0.17912452  0.29100149    -0.38350
N442        N  0.20507833  0.16965649  0.44505229    -0.38350
N443        N  0.21906336  0.26593744  0.33055501    -0.37800
N444        N  0.20097125  0.08504893  0.40394202    -0.37800
C445        C  0.20059916  0.39464141  0.38413846    -0.04460
C446        C  0.20668677  0.42525091  0.39655035    -0.01580
C447        C  0.20739695  0.45669957  0.38261894     0.03410
C448        C  0.20090460  0.45818543  0.35644323    -0.04460
C449        C  0.19403250  0.42731382  0.34451990    -0.01570
C450        C  0.19393052  0.39583446  0.35836358     0.03400
C451        C  0.21237383  0.42452755  0.42369752     0.38050
C452        C  0.18736688  0.42696661  0.31780249     0.38040
C453        C  0.18616005  0.36473573  0.34636243     0.36470
C454        C  0.21531636  0.48698596  0.39546563     0.36470
N455        N  0.17988872  0.33997070  0.33694952    -0.38350
N456        N  0.22188773  0.01080866  0.40581975    -0.38350
N457        N  0.18205490  0.42608751  0.29651461    -0.37800
N458        N  0.21667369  0.42437294  0.44541113    -0.37800
C459        C  0.03886277  0.44501272  0.34817499    -0.04460
C460        C  0.02147588  0.42784959  0.35274137    -0.01580
C461        C  0.02105956  0.39725461  0.36806008     0.03410
C462        C  0.03792703  0.38437292  0.37962407    -0.04460
C463        C  0.05527290  0.40181028  0.37519951    -0.01570
C464        C  0.05575754  0.43174044  0.35940862     0.03400
C465        C  0.00410942  0.44121870  0.34117709     0.38050
C466        C  0.07286201  0.38827322  0.38614413     0.38040
C467        C  0.07369014  0.44949331  0.35531894     0.36470
C468        C  0.00325055  0.37934271  0.37227921     0.36470
N469        N  0.08794320  0.46371292  0.35199441    -0.38350
N470        N  0.98904808  0.36498536  0.37565309    -0.38350
N471        N  0.08690282  0.37751886  0.39480561    -0.37800
N472        N  0.99025851  0.45191002  0.33191049    -0.37800
C473        C  0.04362906  0.12942598  0.35636463    -0.04460
C474        C  0.03041728  0.15531010  0.34926837    -0.01580
C475        C  0.03075942  0.18771037  0.36173856     0.03410
C476        C  0.04470703  0.19477353  0.38101183    -0.04460
C477        C  0.05752444  0.16810246  0.38869034    -0.01570
C478        C  0.05684554  0.13548943  0.37649464     0.03400
C479        C  0.01615016  0.14831536  0.32941699     0.38050
C480        C  0.07182807  0.17404167  0.40865205     0.38040
C481        C  0.07040400  0.10870299  0.38381544     0.36470
C482        C  0.01625318  0.21311946  0.35516486     0.36470
N483        N  0.08123602  0.08737290  0.38956372    -0.38350
N484        N  0.00461667  0.23323856  0.34994125    -0.38350
N485        N  0.08324968  0.17856244  0.42457848    -0.37800
N486        N  0.00477282  0.14276378  0.31362409    -0.37800
C487        C  0.14483087  0.05503437  0.30218805    -0.04460
C488        C  0.13581249  0.02636322  0.29034205    -0.01580
C489        C  0.11586468  0.02294018  0.29123481     0.03410
C490        C  0.10484244  0.04884149  0.30323276    -0.04460
C491        C  0.11388008  0.07879311  0.31334366    -0.01570
C492        C  0.13382334  0.08150047  0.31327279     0.03400
C493        C  0.14712159  0.49960532  0.27824538     0.38050
C494        C  0.10268481  0.10727663  0.32337427     0.38040
C495        C  0.14309761  0.11152012  0.32469656     0.36470
C496        C  0.10687489  0.49171396  0.28135434     0.36470
N497        N  0.15055278  0.13539913  0.33378930    -0.38350
N498        N  0.09970617  0.46669883  0.27365212    -0.38350
N499        N  0.09380926  0.13018876  0.33115100    -0.37800
N500        N  0.15609443  0.47835197  0.26839039    -0.37800
C501        C  0.26055372  0.38548581  0.51020328    -0.04460
C502        C  0.26132975  0.39164959  0.48325692    -0.01580
C503        C  0.25183663  0.36926782  0.46572107     0.03410
C504        C  0.24083867  0.34096307  0.47498724    -0.04460
C505        C  0.24043097  0.33440589  0.50194883    -0.01570
C506        C  0.25032732  0.35629090  0.51940401     0.03400
C507        C  0.27129176  0.42192365  0.47353290     0.38050
C508        C  0.23042915  0.30425138  0.51179962     0.38040
C509        C  0.25060096  0.34762837  0.54682530     0.36470
C510        C  0.25304777  0.37634557  0.43812671     0.36470
N511        N  0.25081818  0.34052115  0.56864343    -0.38350
N512        N  0.25407007  0.38207693  0.41614331    -0.38350
N513        N  0.22253327  0.28013999  0.51969824    -0.37800
N514        N  0.27912180  0.44618172  0.46576262    -0.37800
C515        C  0.39350817  0.42505124  0.56064636    -0.04460
C516        C  0.38260261  0.39677785  0.56937633    -0.01580
C517        C  0.36265642  0.39895925  0.56941166     0.03410
C518        C  0.35342955  0.42948994  0.56056548    -0.04460
C519        C  0.36434726  0.45731021  0.55081527    -0.01570
C520        C  0.38438146  0.45517485  0.55103127     0.03400
C521        C  0.39198709  0.36530259  0.57830310     0.38050
C522        C  0.35506478  0.98890245  0.54204937     0.38040
C523        C  0.39562424  0.48479687  0.54295786     0.36470
C524        C  0.35170097  0.36944395  0.57841434     0.36470
N525        N  0.40462226  0.00847771  0.53670169    -0.38350
N526        N  0.34316589  0.34573472  0.58570852    -0.38350
N527        N  0.34765268  0.01416168  0.53516956    -0.37800
N528        N  0.39952597  0.34024313  0.58533465    -0.37800
C529        C  0.28826927  0.02506301  0.60246391    -0.04460
C530        C  0.27114490  0.04189638  0.60878422    -0.01580
C531        C  0.27145938  0.07245273  0.62399378     0.03410
C532        C  0.28889416  0.08582709  0.63344900    -0.04460
C533        C  0.30601074  0.06884325  0.62704816    -0.01570
C534        C  0.30568147  0.03871137  0.61160402     0.03400
C535        C  0.25324505  0.02780460  0.59955182     0.38050
C536        C  0.32411866  0.08294518  0.63568180     0.38040
C537        C  0.32333454  0.02114536  0.60566190     0.36470
C538        C  0.25382753  0.08954975  0.63053889     0.36470
N539        N  0.33741329  0.00710455  0.60105178    -0.38350
N540        N  0.23977368  0.10323432  0.63582477    -0.38350
N541        N  0.33854408  0.09421701  0.64254601    -0.37800
N542        N  0.23895671  0.01654483  0.59216091    -0.37800
C543        C  0.29256815  0.27175515  0.63227071    -0.04460
C544        C  0.29863168  0.27371063  0.60633881    -0.01580
C545        C  0.29814550  0.30559835  0.59293689     0.03410
C546        C  0.29229939  0.33636304  0.60570707    -0.04460
C547        C  0.28600818  0.33414588  0.63168673    -0.01570
C548        C  0.28598176  0.30194379  0.64475907     0.03400
C549        C  0.30621746  0.24318475  0.59363354     0.38050
C550        C  0.27985636  0.36488463  0.64545484     0.38040
C551        C  0.27877625  0.29985099  0.67100859     0.36470
C552        C  0.30345149  0.30611566  0.56579408     0.36470
N553        N  0.27299276  0.29817372  0.69189481    -0.38350
N554        N  0.30772224  0.30636899  0.54418715    -0.38350
N555        N  0.27490991  0.38928510  0.65653107    -0.37800
N556        N  0.31234041  0.21895110  0.58350040    -0.37800
C557        C  0.46188503  0.26838686  0.63973141    -0.04460
C558        C  0.46690187  0.30007491  0.65173119    -0.01580
C559        C  0.46654573  0.33156274  0.63747802     0.03410
C560        C  0.46091517  0.33209848  0.61091991    -0.04460
C561        C  0.45630372  0.30024082  0.59879031    -0.01570
C562        C  0.45668885  0.26879265  0.61305391     0.03400
C563        C  0.47257603  0.30051952  0.67885840     0.38050
C564        C  0.45022509  0.29960170  0.57181295     0.38040
C565        C  0.45047996  0.23719024  0.60029650     0.36470
C566        C  0.47225174  0.36335702  0.65043176     0.36470
N567        N  0.44538416  0.21227028  0.58988628    -0.38350
N568        N  0.47678859  0.38862156  0.66087700    -0.38350
N569        N  0.44536068  0.29888309  0.55032113    -0.37800
N570        N  0.47703298  0.30100862  0.70051205    -0.37800
C571        C  0.45792244  0.08200466  0.64036000    -0.04460
C572        C  0.45666682  0.05028200  0.65414772    -0.01580
C573        C  0.45537797  0.01872999  0.64062189     0.03410
C574        C  0.45552371  0.01867400  0.61328355    -0.04460
C575        C  0.45713022  0.05021675  0.59947664    -0.01570
C576        C  0.45847540  0.08178634  0.61297032     0.03400
C577        C  0.45702377  0.04988218  0.68230870     0.38050
C578        C  0.45758187  0.05027714  0.57132233     0.38040
C579        C  0.45985688  0.11396800  0.59842221     0.36470
C580        C  0.45294859  0.48648407  0.65487770     0.36470
N581        N  0.46107654  0.13941914  0.58658530    -0.38350
N582        N  0.45089451  0.46080421  0.66622030    -0.38350
N583        N  0.45790466  0.05033710  0.54889480    -0.37800
N584        N  0.45731816  0.04956990  0.70474608    -0.37800
C585        C  0.39587754  0.17923922  0.68014182    -0.04460
C586        C  0.38524587  0.17496712  0.70304978    -0.01580
C587        C  0.36517002  0.17411550  0.70191632     0.03410
C588        C  0.35547127  0.17660163  0.67774014    -0.04460
C589        C  0.36623028  0.18005570  0.65479844    -0.01570
C590        C  0.38615859  0.18239007  0.65608089     0.03400
C591        C  0.39487387  0.17031526  0.72782580     0.38050
C592        C  0.35703101  0.18004401  0.62944755     0.38040
C593        C  0.39653562  0.18889095  0.63233946     0.36470
C594        C  0.35464704  0.17109954  0.72585591     0.36470
N595        N  0.40469177  0.19409610  0.61335924    -0.38350
N596        N  0.34631869  0.16868006  0.74500224    -0.38350
N597        N  0.34982879  0.17988252  0.60918068    -0.37800
N598        N  0.40250243  0.16649160  0.74760924    -0.37800
C599        C  0.23975584  0.50118388  0.26440715    -0.04460
C600        C  0.23949547  0.50444989  0.23710917    -0.01580
C601        C  0.24933832  0.48039252  0.22152706     0.03410
C602        C  0.25994804  0.45290019  0.23300535    -0.04460
C603        C  0.26024260  0.44963761  0.26028596    -0.01570
C604        C  0.25006462  0.47326828  0.27585913     0.03400
C605        C  0.22951035  0.03321884  0.22489656     0.38050
C606        C  0.27048561  0.42112626  0.27242354     0.38040
C607        C  0.24950041  0.46750384  0.30367382     0.36470
C608        C  0.24900914  0.48500745  0.19357652     0.36470
N609        N  0.24898921  0.46275523  0.32582463    -0.38350
N610        N  0.24868771  0.48878642  0.17130764    -0.38350
N611        N  0.27861904  0.39837176  0.28214449    -0.37800
N612        N  0.22159488  0.05617035  0.21509922    -0.37800
C613        C  0.35527461  0.41081946  0.18875317    -0.04460
C614        C  0.36641005  0.38873034  0.20472187    -0.01580
C615        C  0.38636200  0.39268572  0.20570754     0.03410
C616        C  0.39528163  0.41826331  0.19039626    -0.04460
C617        C  0.38417827  0.44096187  0.17508700    -0.01570
C618        C  0.36427187  0.43756522  0.17444867     0.03400
C619        C  0.35752970  0.36068259  0.21898831     0.38050
C620        C  0.39330847  0.46814813  0.16012151     0.38040
C621        C  0.35311209  0.46225199  0.15937606     0.36470
C622        C  0.39778339  0.36938526  0.22155542     0.36470
N623        N  0.34429644  0.48202690  0.14735403    -0.38350
N624        N  0.40686755  0.35083375  0.23427175    -0.38350
N625        N  0.40064171  0.48979845  0.14825552    -0.37800
N626        N  0.35046877  0.33817196  0.23026213    -0.37800
C627        C  0.29041063  0.30988380  0.14730430    -0.04460
C628        C  0.30783007  0.29392726  0.14102504    -0.01580
C629        C  0.30809340  0.26408570  0.12521964     0.03410
C630        C  0.29094508  0.24936624  0.11606321    -0.04460
C631        C  0.27350900  0.26483045  0.12269357    -0.01570
C632        C  0.27325053  0.29534863  0.13792307     0.03400
C633        C  0.32559826  0.30898852  0.15003123     0.38050
C634        C  0.25588156  0.24951269  0.11357108     0.38040
C635        C  0.25533246  0.31153463  0.14427756     0.36470
C636        C  0.32608962  0.24852719  0.11825819     0.36470
N637        N  0.24103771  0.32448250  0.14938978    -0.38350
N638        N  0.34044597  0.23626531  0.11258720    -0.38350
N639        N  0.24183393  0.23720702  0.10625709    -0.37800
N640        N  0.33975444  0.32102384  0.15721246    -0.37800
C641        C  0.29497248  0.49856559  0.14130225    -0.04460
C642        C  0.29618680  0.49956355  0.11399675    -0.01580
C643        C  0.29576828  0.03162441  0.10081921     0.03410
C644        C  0.29462285  0.06301793  0.11489370    -0.04460
C645        C  0.29344304  0.06200694  0.14220421    -0.01570
C646        C  0.29345771  0.02994738  0.15533821     0.03400
C647        C  0.29876939  0.46778025  0.09939815     0.38050
C648        C  0.29301519  0.09394277  0.15707046     0.38040
C649        C  0.29171263  0.02955037  0.18338088     0.36470
C650        C  0.29622841  0.03205801  0.07267674     0.36470
N651        N  0.29034821  0.02934653  0.20572138    -0.38350
N652        N  0.29659290  0.03235798  0.05025136    -0.38350
N653        N  0.29272161  0.11935613  0.16895813    -0.37800
N654        N  0.30092752  0.44247001  0.08777360    -0.37800
C655        C  0.46365971  0.01223785  0.14553814    -0.04460
C656        C  0.46600761  0.01173101  0.11819236    -0.01580
C657        C  0.46655807  0.04298624  0.10364644     0.03410
C658        C  0.46429166  0.07550079  0.11590344    -0.04460
C659        C  0.46207715  0.07608316  0.14325763    -0.01570
C660        C  0.46196164  0.04484781  0.15789853     0.03400
C661        C  0.46685472  0.47901000  0.10440089     0.38050
C662        C  0.45895827  0.10870911  0.15655548     0.38040
C663        C  0.46005371  0.04659776  0.18584872     0.36470
C664        C  0.46952566  0.04137646  0.07586856     0.36470
N665        N  0.45850983  0.04814602  0.20812961    -0.38350
N666        N  0.47188833  0.03996881  0.05372777    -0.38350
N667        N  0.45640529  0.13463784  0.16723421    -0.37800
N668        N  0.46741608  0.45307883  0.09318418    -0.37800
C669        C  0.45680393  0.26183071  0.11343952    -0.04460
C670        C  0.44729180  0.26375975  0.13725396    -0.01580
C671        C  0.44567205  0.29576913  0.15002424     0.03410
C672        C  0.45478649  0.32572670  0.13999560    -0.04460
C673        C  0.46441534  0.32353869  0.11607235    -0.01570
C674        C  0.46479348  0.29195209  0.10243061     0.03400
C675        C  0.43830703  0.23305996  0.14805896     0.38050
C676        C  0.47447377  0.35324765  0.10561045     0.38040
C677        C  0.47348965  0.29056275  0.07707234     0.36470
C678        C  0.43364655  0.29782338  0.17265432     0.36470
N679        N  0.48018211  0.28998639  0.05669125    -0.38350
N680        N  0.42379918  0.29914083  0.19043723    -0.38350
N681        N  0.48265187  0.37669507  0.09716896    -0.37800
N682        N  0.43116417  0.20863917  0.15672027    -0.37800
C683        C  0.39721457  0.16125172  0.07129817    -0.04460
C684        C  0.38664499  0.16560279  0.04807199    -0.01580
C685        C  0.36654782  0.16571418  0.04850061     0.03410
C686        C  0.35678326  0.16231133  0.07230937    -0.04460
C687        C  0.36753853  0.15823078  0.09556077    -0.01570
C688        C  0.38748287  0.15671895  0.09490904     0.03400
C689        C  0.39637813  0.17093352  0.02372503     0.38050
C690        C  0.35833863  0.15639284  0.12062767     0.38040
C691        C  0.39792738  0.14930305  0.11875648     0.36470
C692        C  0.35609118  0.16876236  0.02422312     0.36470
N693        N  0.40618398  0.14321439  0.13774528    -0.38350
N694        N  0.34782658  0.17114273  0.00478839    -0.38350
N695        N  0.35110428  0.15500475  0.14065039    -0.37800
N696        N  0.40411543  0.17524127  0.00429209    -0.37800
C697        C  0.24078314  0.07426219  0.98542002    -0.04460
C698        C  0.25354353  0.09977944  0.97599830    -0.01580
C699        C  0.26418315  0.12053792  0.99338975     0.03410
C700        C  0.26202108  0.11656906  0.02041406    -0.04460
C701        C  0.24914647  0.09128539  0.02984946    -0.01570
C702        C  0.23855463  0.07041334  0.01246441     0.03400
C703        C  0.25516878  0.10606682  0.94833337     0.38050
C704        C  0.24741865  0.08529698  0.05753475     0.38040
C705        C  0.22574119  0.04425791  0.02256898     0.36470
C706        C  0.27704630  0.14664701  0.98333804     0.36470
N707        N  0.21551745  0.02344341  0.03067397    -0.38350
N708        N  0.28731093  0.16742365  0.97527818    -0.38350
N709        N  0.24606847  0.08040992  0.07958982    -0.37800
N710        N  0.25643418  0.11120492  0.92629849    -0.37800
C711        C  0.10738872  0.03818641  0.92731044    -0.04460
C712        C  0.11675912  0.01319509  0.91195014    -0.01580
C713        C  0.13664702  0.00977540  0.91334532     0.03410
C714        C  0.14734489  0.03078160  0.93042967    -0.04460
C715        C  0.13804822  0.05559159  0.94590528    -0.01570
C716        C  0.11813396  0.05929633  0.94435949     0.03400
C717        C  0.10599760  0.49030243  0.89497922     0.38050
C718        C  0.14908462  0.07895647  0.96214347     0.38040
C719        C  0.10888830  0.08609395  0.95935755     0.36470
C720        C  0.14607551  0.48445330  0.89714403     0.36470
N721        N  0.10156132  0.10756048  0.97128319    -0.38350
N722        N  0.15350422  0.46439762  0.88403818    -0.38350
N723        N  0.15792436  0.09773073  0.97491762    -0.37800
N724        N  0.09750545  0.47205720  0.88136457    -0.37800
C725        C  0.26184556  0.21189746  0.73175059    -0.04460
C726        C  0.24232014  0.20379413  0.73343890    -0.01580
C727        C  0.23060266  0.22169920  0.75097825     0.03410
C728        C  0.23829588  0.24772154  0.76738873    -0.04460
C729        C  0.25783914  0.25566388  0.76584754    -0.01570
C730        C  0.26951949  0.23803816  0.74810866     0.03400
C731        C  0.23429055  0.17614796  0.71772028     0.38050
C732        C  0.26592074  0.28287169  0.78194694     0.38040
C733        C  0.28932049  0.24810810  0.74611043     0.36470
C734        C  0.21071944  0.21209818  0.75272309     0.36470
N735        N  0.30508851  0.25624385  0.74453447    -0.38350
N736        N  0.19488789  0.20431983  0.75412087    -0.38350
N737        N  0.27237260  0.30455922  0.79477106    -0.37800
N738        N  0.22789287  0.15405638  0.70523715    -0.37800
C739        C  0.21102317  0.37238600  0.86778781    -0.04460
C740        C  0.22638992  0.39549526  0.86463648    -0.01580
C741        C  0.22743243  0.42625717  0.87946902     0.03410
C742        C  0.21317425  0.43403889  0.89768984    -0.04460
C743        C  0.19815650  0.41023197  0.90144732    -0.01570
C744        C  0.19695479  0.37985830  0.88633795     0.03400
C745        C  0.24136969  0.38723894  0.84659730     0.38050
C746        C  0.18330889  0.41767526  0.91993377     0.38040
C747        C  0.18053371  0.35729664  0.88884479     0.36470
C748        C  0.24345533  0.44952905  0.87641302     0.36470
N749        N  0.16741112  0.33938699  0.89064814    -0.38350
N750        N  0.25626481  0.46806432  0.87407686    -0.38350
N751        N  0.17146156  0.42351475  0.93467216    -0.37800
N752        N  0.25335047  0.38057568  0.83226303    -0.37800
C753        C  0.21051787  0.18849857  0.86391643    -0.04460
C754        C  0.21394013  0.15763131  0.85009305    -0.01580
C755        C  0.21376453  0.12544527  0.86305243     0.03410
C756        C  0.21044174  0.12412439  0.89000882    -0.04460
C757        C  0.20790601  0.15530982  0.90400866    -0.01570
C758        C  0.20769362  0.18734791  0.89091668     0.03400
C759        C  0.21785603  0.15895218  0.82253919     0.38050
C760        C  0.20565710  0.15469834  0.93197423     0.38040
C761        C  0.20351515  0.21892171  0.90507757     0.36470
C762        C  0.21615742  0.09374769  0.84830894     0.36470
N763        N  0.20007886  0.24407319  0.91629760    -0.38350
N764        N  0.21803100  0.06849524  0.83652125    -0.38350
N765        N  0.20385410  0.15420965  0.95424852    -0.37800
N766        N  0.22108450  0.15981851  0.80060195    -0.37800
C767        C  0.03910807  0.13813990  0.88731019    -0.04460
C768        C  0.05280977  0.16417517  0.89239879    -0.01580
C769        C  0.05213713  0.19594474  0.87888145     0.03410
C770        C  0.03836522  0.20150353  0.85918649    -0.04460
C771        C  0.02460720  0.17576849  0.85407058    -0.01570
C772        C  0.02477831  0.14436630  0.86837478     0.03400
C773        C  0.06849488  0.15764065  0.91024758     0.38050
C774        C  0.00996012  0.18205804  0.83466544     0.38040
C775        C  0.00994764  0.11886033  0.86397252     0.36470
C776        C  0.06623408  0.22247750  0.88461725     0.36470
N777        N  0.99806477  0.09856883  0.86057401    -0.38350
N778        N  0.07742376  0.24365380  0.88920575    -0.38350
N779        N  0.99823421  0.18713539  0.81923641    -0.37800
N780        N  0.08112380  0.15244731  0.92425296    -0.37800
C781        C  0.04211797  0.38074536  0.86308516    -0.04460
C782        C  0.02957473  0.40730577  0.85539309    -0.01580
C783        C  0.03077652  0.44009997  0.86721060     0.03410
C784        C  0.04427147  0.44604675  0.88731642    -0.04460
C785        C  0.05595987  0.41828189  0.89608704    -0.01570
C786        C  0.05496848  0.38588226  0.88375122     0.03400
C787        C  0.01578612  0.40114885  0.83480442     0.38050
C788        C  0.06952612  0.42287439  0.91719089     0.38040
C789        C  0.06717487  0.35758153  0.89232543     0.36470
C790        C  0.01797746  0.46741750  0.85859806     0.36470
N791        N  0.07683097  0.33494019  0.89911375    -0.38350
N792        N  0.00781272  0.48918541  0.85158865    -0.38350
N793        N  0.08032577  0.42630924  0.93405340    -0.37800
N794        N  0.00469216  0.39620483  0.81852980    -0.37800
C795        C  0.10482920  0.28035267  0.81234234    -0.04460
C796        C  0.11465221  0.25224856  0.82364189    -0.01580
C797        C  0.13461889  0.25300421  0.82565526     0.03410
C798        C  0.14493634  0.28198309  0.81616980    -0.04460
C799        C  0.13499481  0.30963615  0.80405403    -0.01570
C800        C  0.11499108  0.30883305  0.80229141     0.03400
C801        C  0.10416707  0.22254634  0.83332371     0.38050
C802        C  0.14514442  0.33991773  0.79475972     0.38040
C803        C  0.10472938  0.33807304  0.79118303     0.36470
C804        C  0.14442971  0.22371274  0.83748168     0.36470
N805        N  0.09646072  0.36134991  0.78243067    -0.38350
N806        N  0.15222827  0.20044552  0.84704135    -0.38350
N807        N  0.15321017  0.36413863  0.78738485    -0.37800
N808        N  0.09592032  0.19864289  0.84088837    -0.37800
C809        C  0.51334646  0.25299687  0.98622693    -0.04460
C810        C  0.49901163  0.23056720  0.97631763    -0.01580
C811        C  0.48859333  0.20873772  0.99311581     0.03410
C812        C  0.49251107  0.20828439  0.02007114    -0.04460
C813        C  0.50719338  0.22999796  0.02988445    -0.01570
C814        C  0.51729862  0.25245240  0.01317873     0.03400
C815        C  0.49537607  0.22852512  0.94859822     0.38050
C816        C  0.51154487  0.23060153  0.05745572     0.38040
C817        C  0.53143552  0.27579422  0.02407649     0.36470
C818        C  0.47414932  0.18592606  0.98233346     0.36470
N819        N  0.54266786  0.29441744  0.03284388    -0.38350
N820        N  0.46263909  0.16779305  0.97366081    -0.38350
N821        N  0.51500536  0.23126519  0.07943109    -0.37800
N822        N  0.49250235  0.22674810  0.92650890    -0.37800
C823        C  0.60804681  0.29378258  0.93349338    -0.04460
C824        C  0.61848383  0.31214471  0.91468719    -0.01580
C825        C  0.63836447  0.30852955  0.91347338     0.03410
C826        C  0.64811542  0.28584471  0.93078856    -0.04460
C827        C  0.63761010  0.26730297  0.94954742    -0.01570
C828        C  0.61768877  0.27148171  0.95101404     0.03400
C829        C  0.60879098  0.33510470  0.89649589     0.38050
C830        C  0.64706024  0.24236777  0.96639476     0.38040
C831        C  0.60698787  0.25122763  0.96959949     0.36470
C832        C  0.64866021  0.32879174  0.89441029     0.36470
N833        N  0.59843182  0.23499914  0.98435836    -0.38350
N834        N  0.65672447  0.34488560  0.87905828    -0.38350
N835        N  0.65455782  0.22226788  0.97971259    -0.37800
N836        N  0.60117445  0.35327432  0.88181572    -0.37800
C837        C  0.71864116  0.12733752  0.86007543    -0.04460
C838        C  0.72030492  0.12690398  0.88755262    -0.01580
C839        C  0.72051368  0.15829698  0.90171789     0.03410
C840        C  0.71874745  0.19055663  0.88876907    -0.04460
C841        C  0.71801402  0.19101756  0.86125228    -0.01570
C842        C  0.71825776  0.15974468  0.84708336     0.03400
C843        C  0.72092724  0.09425295  0.90167716     0.38050
C844        C  0.71586265  0.22352721  0.84715915     0.38040
C845        C  0.71801483  0.16124850  0.81894190     0.36470
C846        C  0.72255600  0.15720083  0.92973726     0.36470
N847        N  0.71780503  0.16256268  0.79652262    -0.38350
N848        N  0.72421701  0.15623484  0.95207264    -0.38350
N849        N  0.71407154  0.24934649  0.83585135    -0.37800
N850        N  0.72140068  0.06830061  0.91304570    -0.37800
C851        C  0.70647321  0.44203023  0.86034904    -0.04460
C852        C  0.71844644  0.41523939  0.85176587    -0.01580
C853        C  0.71840298  0.38288685  0.86447424     0.03410
C854        C  0.70614535  0.37715135  0.88565122    -0.04460
C855        C  0.69417247  0.40428283  0.89418579    -0.01570
C856        C  0.69441701  0.43663690  0.88157021     0.03400
C857        C  0.73129439  0.42140304  0.83038019     0.38050
C858        C  0.68112412  0.39895250  0.91546799     0.38040
C859        C  0.68169813  0.46399112  0.88986491     0.36470
C860        C  0.73160407  0.35622175  0.85633701     0.36470
N861        N  0.67149259  0.48562844  0.89655363    -0.38350
N862        N  0.74218816  0.33504218  0.84989426    -0.38350
N863        N  0.67071057  0.39478178  0.93240992    -0.37800
N864        N  0.74154106  0.42641732  0.81337400    -0.37800
C865        C  0.48961015  0.13403197  0.73790745    -0.04140
C866        C  0.48098711  0.11443780  0.75800133    -0.01580
C867        C  0.49198103  0.09239435  0.77428497     0.03410
C868        C  0.51189634  0.08956167  0.77111040    -0.04460
C869        C  0.52057391  0.10972338  0.75140364    -0.01570
C870        C  0.50959022  0.13174866  0.73511497     0.03400
C871        C  0.46062861  0.11607787  0.76194007     0.38050
C872        C  0.54102347  0.10900962  0.74813074     0.38040
C873        C  0.51919867  0.15268328  0.71579372     0.36470
C874        C  0.48248084  0.07216394  0.79411321     0.36470
N875        N  0.52693888  0.16929444  0.70043268    -0.38350
N876        N  0.47484635  0.05617792  0.80993331    -0.38350
N877        N  0.55731436  0.10858249  0.74541182    -0.37800
N878        N  0.44441518  0.11728702  0.76526598    -0.37800
C879        C  0.54030064  0.39132112  0.89748487    -0.04460
C880        C  0.52469949  0.39996085  0.88110562    -0.01580
C881        C  0.52503073  0.43066096  0.86583957     0.03410
C882        C  0.54113928  0.45246131  0.86631567    -0.04460
C883        C  0.55689504  0.44318044  0.88202199    -0.01570
C884        C  0.55624746  0.41363271  0.89817255     0.03400
C885        C  0.50805837  0.37780445  0.88049507     0.38050
C886        C  0.57449931  0.46248774  0.88003203     0.38040
C887        C  0.57247033  0.40570795  0.91475870     0.36470
C888        C  0.50871157  0.44007839  0.84998727     0.36470
N889        N  0.58536782  0.39968280  0.92810884    -0.38350
N890        N  0.49567867  0.44762742  0.83734204    -0.38350
N891        N  0.58876122  0.47708445  0.87809732    -0.37800
N892        N  0.49477465  0.36011367  0.88005506    -0.37800
C893        C  0.54477112  0.20140087  0.89280361    -0.04460
C894        C  0.53287589  0.19729182  0.87067209    -0.01580
C895        C  0.53202295  0.16508438  0.85790404     0.03410
C896        C  0.54212556  0.13649875  0.86797847    -0.04460
C897        C  0.55306065  0.13982270  0.89074820    -0.01570
C898        C  0.55506344  0.17239246  0.90256006     0.03400
C899        C  0.52119746  0.22570888  0.86114119     0.38050
C900        C  0.56255344  0.10974317  0.90184744     0.38040
C901        C  0.56855175  0.17592283  0.92389404     0.36470
C902        C  0.52050890  0.16108389  0.83459345     0.36470
N903        N  0.57942749  0.17862269  0.94074097    -0.38350
N904        N  0.51133429  0.15784622  0.81601897    -0.38350
N905        N  0.56985554  0.08578570  0.91111979    -0.37800
N906        N  0.51180631  0.24827844  0.85354965    -0.37800
C907        C  0.60645698  0.04482947  0.82060821    -0.04460
C908        C  0.61586630  0.04329027  0.79649949    -0.01580
C909        C  0.63596169  0.04303538  0.79558058     0.03410
C910        C  0.64685629  0.04515947  0.81872045    -0.04460
C911        C  0.63743197  0.04911059  0.84259107    -0.01570
C912        C  0.61750485  0.04791734  0.84363982     0.03400
C913        C  0.60497591  0.04316491  0.77248763     0.38050
C914        C  0.64816275  0.05581290  0.86630664     0.38040
C915        C  0.60870539  0.04897157  0.86893033     0.36470
C916        C  0.64531683  0.04015020  0.77077393     0.36470
N917        N  0.60222924  0.04963331  0.88943181    -0.38350
N918        N  0.65276011  0.03796552  0.75095168    -0.38350
N919        N  0.65661584  0.06141494  0.88519369    -0.37800
N920        N  0.59631227  0.04331122  0.75330216    -0.37800
C921        C  0.98871302  0.21608248  0.51131475    -0.04460
C922        C  0.99812962  0.19736418  0.49193669    -0.01580
C923        C  0.00866745  0.21517789  0.47290005     0.03410
C924        C  0.00983087  0.25189956  0.47314182    -0.04460
C925        C  0.00017095  0.27063033  0.49229944    -0.01570
C926        C  0.98955650  0.25282374  0.51125080     0.03400
C927        C  0.99745918  0.15972503  0.49210446     0.38050
C928        C  0.00085155  0.30826240  0.49215369     0.38040
C929        C  0.97898413  0.27252081  0.53016472     0.36470
C930        C  0.01877923  0.19539202  0.45359590     0.36470
N931        N  0.97048558  0.28864941  0.54493790    -0.38350
N932        N  0.02673226  0.17886953  0.43850597    -0.38350
N933        N  0.00135612  0.33829006  0.49195624    -0.37800
N934        N  0.99695958  0.12969657  0.49230769    -0.37800
C935        C  0.89697908  0.17244805  0.56964919    -0.04460
C936        C  0.88641300  0.16316147  0.54716524    -0.01580
C937        C  0.86638763  0.16571070  0.54679017     0.03410
C938        C  0.85656131  0.17752431  0.56886775    -0.04460
C939        C  0.86703320  0.18549934  0.59166522    -0.01570
C940        C  0.88698234  0.18265212  0.59216962     0.03400
C941        C  0.89592048  0.14951638  0.52454680     0.38050
C942        C  0.85745989  0.19727682  0.61486711     0.38040
C943        C  0.89695977  0.19053524  0.61624417     0.36470
C944        C  0.85592645  0.15452571  0.52389761     0.36470
N945        N  0.90475610  0.19680159  0.63553235    -0.38350
N946        N  0.84762559  0.14544851  0.50566291    -0.38350
N947        N  0.84997373  0.20655302  0.63347116    -0.37800
N948        N  0.90340590  0.13844780  0.50650223    -0.37800
C949        C  0.76420443  0.45906030  0.73017022    -0.04460
C950        C  0.74428427  0.46062176  0.72660139    -0.01580
C951        C  0.73289501  0.47986564  0.74376580     0.03410
C952        C  0.74123238  0.49798438  0.76495202    -0.04460
C953        C  0.76120329  0.49609663  0.76861255    -0.01570
C954        C  0.77254898  0.47671685  0.75146525     0.03400
C955        C  0.73528747  0.44176430  0.70545375     0.38050
C956        C  0.77040605  0.01477332  0.78967695     0.38040
C957        C  0.79300097  0.47637214  0.75534119     0.36470
C958        C  0.71246860  0.47995461  0.73967418     0.36470
N959        N  0.80929188  0.47617966  0.75851994    -0.38350
N960        N  0.69619852  0.47991252  0.73627820    -0.38350
N961        N  0.77781352  0.02955707  0.80645593    -0.37800
N962        N  0.72810797  0.42680004  0.68858476    -0.37800
C963        C  0.79202047  0.33543399  0.63354807    -0.04460
C964        C  0.80918512  0.31951408  0.62614840    -0.01580
C965        C  0.80891179  0.29075364  0.60935051     0.03410
C966        C  0.79146595  0.27599505  0.60133242    -0.04460
C967        C  0.77429509  0.29209801  0.60843523    -0.01570
C968        C  0.77459733  0.32237602  0.62389791     0.03400
C969        C  0.82725221  0.33325435  0.63529941     0.38050
C970        C  0.75639547  0.27818091  0.59904919     0.38040
C971        C  0.75701096  0.33980488  0.63018685     0.36470
C972        C  0.82668092  0.27659270  0.60015484     0.36470
N973        N  0.74300902  0.35390474  0.63512120    -0.38350
N974        N  0.84089087  0.26601903  0.59238977    -0.38350
N975        N  0.74212587  0.26714546  0.59140154    -0.37800
N976        N  0.84164449  0.34406918  0.64270011    -0.37800
C977        C  0.79823050  0.02353401  0.63764503    -0.04460
C978        C  0.81366300  0.04691842  0.63954732    -0.01580
C979        C  0.81276761  0.07916850  0.62671844     0.03410
C980        C  0.79635296  0.08841829  0.61247245    -0.04460
C981        C  0.78077231  0.06561475  0.61117709    -0.01570
C982        C  0.78164187  0.03327136  0.62381451     0.03400
C983        C  0.83072453  0.03759512  0.65398769     0.38050
C984        C  0.76398330  0.07487343  0.59628326     0.38040
C985        C  0.76521617  0.01047607  0.62309904     0.36470
C986        C  0.82894460  0.10247703  0.62772219     0.36470
N987        N  0.75211741  0.49233225  0.62258668    -0.38350
N988        N  0.84199607  0.12068860  0.62862877    -0.38350
N989        N  0.75041272  0.08144989  0.58448443    -0.37800
N990        N  0.84432274  0.03039565  0.66558745    -0.37800
C991        C  0.99263106  0.38197392  0.72881703    -0.04460
C992        C  0.00840222  0.39672233  0.74164652    -0.01580
C993        C  0.02016222  0.37592068  0.75767997     0.03410
C994        C  0.01611171  0.34011802  0.76116457    -0.04460
C995        C  0.00044028  0.32532169  0.74799760    -0.01570
C996        C  0.98882459  0.34609715  0.73177061     0.03400
C997        C  0.01208256  0.43363021  0.73914180     0.38050
C998        C  0.99663267  0.28842878  0.75038879     0.38040
C999        C  0.97338788  0.33011659  0.71724652     0.36470
C1000       C  0.03592896  0.39193536  0.77149227     0.36470
N1001       N  0.96116970  0.31721839  0.70560104    -0.38350
N1002       N  0.04846210  0.40469944  0.78258450    -0.38350
N1003       N  0.99363324  0.25898433  0.75222187    -0.37800
N1004       N  0.01494064  0.46311190  0.73725039    -0.37800
C1005       C  0.96595390  0.02510896  0.64159530    -0.04460
C1006       C  0.98280957  0.03732180  0.63002869    -0.01580
C1007       C  0.98254379  0.06785544  0.61465556     0.03410
C1008       C  0.96527842  0.08534460  0.60980684    -0.04460
C1009       C  0.94848412  0.07330552  0.62156576    -0.01570
C1010       C  0.94894294  0.04404220  0.63805870     0.03400
C1011       C  0.00051429  0.01908203  0.63468427     0.38050
C1012       C  0.93057505  0.09084781  0.61653169     0.38040
C1013       C  0.93176782  0.03329631  0.65116643     0.36470
C1014       C  0.99996074  0.08124128  0.60374429     0.36470
N1015       N  0.91812512  0.02521734  0.66194663    -0.38350
N1016       N  0.01386220  0.09208001  0.59510343    -0.38350
N1017       N  0.91617228  0.10436429  0.61249538    -0.37800
N1018       N  0.01464590  0.00456607  0.63856166    -0.37800
C1019       C  0.95873030  0.33823823  0.63048418    -0.04460
C1020       C  0.94107304  0.32355489  0.62333002    -0.01580
C1021       C  0.94043076  0.29134692  0.61067074     0.03410
C1022       C  0.95743003  0.27315863  0.60582262    -0.04460
C1023       C  0.97511750  0.28836389  0.61230333    -0.01570
C1024       C  0.97575776  0.32094690  0.62453885     0.03400
C1025       C  0.92348273  0.34169878  0.62881874     0.38050
C1026       C  0.99269684  0.27111366  0.60557341     0.38040
C1027       C  0.99390561  0.33596263  0.63195490     0.36470
C1028       C  0.92217758  0.27694853  0.60300371     0.36470
N1029       N  0.00836487  0.34796304  0.63790545    -0.38350
N1030       N  0.90755078  0.26601243  0.59668337    -0.38350
N1031       N  0.00669410  0.25740204  0.60006290    -0.37800
N1032       N  0.90945734  0.35602845  0.63327742    -0.37800
C1033       C  0.89969074  0.43215579  0.67563103    -0.04460
C1034       C  0.88913278  0.44589462  0.65452765    -0.01580
C1035       C  0.86915478  0.44429674  0.65438462     0.03410
C1036       C  0.85939743  0.42777523  0.67495759    -0.04460
C1037       C  0.87002156  0.41318119  0.69574570    -0.01570
C1038       C  0.89003762  0.41559682  0.69616254     0.03400
C1039       C  0.89873874  0.46185016  0.63272132     0.38050
C1040       C  0.86054013  0.39411109  0.71619117     0.38040
C1041       C  0.90070809  0.39896470  0.71698409     0.36470
C1042       C  0.85879806  0.46051579  0.63306181     0.36470
N1043       N  0.90920204  0.38552558  0.73351289    -0.38350
N1044       N  0.85064098  0.47350344  0.61602142    -0.38350
N1045       N  0.85302943  0.37874504  0.73245673    -0.37800
N1046       N  0.90630656  0.47434993  0.61519819    -0.37800
C1047       C  0.76155458  0.13718573  0.51364056    -0.04460
C1048       C  0.74438770  0.12183533  0.52212706    -0.01580
C1049       C  0.73553663  0.09524013  0.50754301     0.03410
C1050       C  0.74232674  0.08621823  0.48267718    -0.04460
C1051       C  0.75832429  0.10445469  0.47295288    -0.01570
C1052       C  0.76797957  0.12923338  0.48842657     0.03400
C1053       C  0.73520887  0.13402324  0.54545181     0.38050
C1054       C  0.76466299  0.09908484  0.44657778     0.38040
C1055       C  0.78404895  0.14775479  0.47763816     0.36470
C1056       C  0.71956409  0.07685143  0.51869750     0.36470
N1057       N  0.79677733  0.16259823  0.46890241    -0.38350
N1058       N  0.70691091  0.06216071  0.52776718    -0.38350
N1059       N  0.76976456  0.09515341  0.42553875    -0.37800
N1060       N  0.72768724  0.14394904  0.56384123    -0.37800
C1061       C  0.48894574  0.46421148  0.51777121    -0.04460
C1062       C  0.50059504  0.49253929  0.52546578    -0.01580
C1063       C  0.51165052  0.01064386  0.50709468     0.03410
C1064       C  0.51118078  0.50107184  0.48065839    -0.04460
C1065       C  0.49900271  0.47357977  0.47280282    -0.01570
C1066       C  0.48829553  0.45491406  0.49127344     0.03400
C1067       C  0.50087903  0.00414440  0.55221938     0.38050
C1068       C  0.49766091  0.46363302  0.44572667     0.38040
C1069       C  0.47718414  0.42514646  0.48295845     0.36470
C1070       C  0.52296541  0.04015697  0.51541793     0.36470
N1071       N  0.46843104  0.40130510  0.47628103    -0.38350
N1072       N  0.53191769  0.06375140  0.52209390    -0.38350
N1073       N  0.49649508  0.45566514  0.42415453    -0.37800
N1074       N  0.50116120  0.01351198  0.57351352    -0.37800
C1075       C  0.60919599  0.04005815  0.43429674    -0.04460
C1076       C  0.61929033  0.06358766  0.41864062    -0.01580
C1077       C  0.63922832  0.06184702  0.41738036     0.03410
C1078       C  0.64939906  0.03658186  0.43205151    -0.04460
C1079       C  0.63920991  0.01337310  0.44812700    -0.01570
C1080       C  0.61917932  0.01511853  0.44919416     0.03400
C1081       C  0.60908378  0.08999133  0.40390169     0.38050
C1082       C  0.64912992  0.48633582  0.46246651     0.38040
C1083       C  0.60876960  0.48986999  0.46441331     0.36470
C1084       C  0.64907957  0.08640747  0.40085382     0.36470
N1085       N  0.60044898  0.46963150  0.47643434    -0.38350
N1086       N  0.65676894  0.10584808  0.38739942    -0.38350
N1087       N  0.65700619  0.46465143  0.47383382    -0.37800
N1088       N  0.60091232  0.11099894  0.39221115    -0.37800
C1089       C  0.71773560  0.38300501  0.36082654    -0.04460
C1090       C  0.72454658  0.38419038  0.38678667    -0.01580
C1091       C  0.72453297  0.41572659  0.40078614     0.03410
C1092       C  0.71783477  0.44664501  0.38902532    -0.04460
C1093       C  0.71173295  0.44568086  0.36270255    -0.01570
C1094       C  0.71172973  0.41416567  0.34874525     0.03400
C1095       C  0.73186236  0.35298208  0.39917196     0.38050
C1096       C  0.70427430  0.47668089  0.35014472     0.38040
C1097       C  0.70440461  0.41370032  0.32233482     0.36470
C1098       C  0.73167139  0.41625911  0.42726517     0.36470
N1099       N  0.69851688  0.41341157  0.30130719    -0.38350
N1100       N  0.73737246  0.41659671  0.44838512    -0.38350
N1101       N  0.69828649  0.00133254  0.34011530    -0.37800
N1102       N  0.73769930  0.32810803  0.40905509    -0.37800
C1103       C  0.71579514  0.20121445  0.36929661    -0.04460
C1104       C  0.72961448  0.17591529  0.36432024    -0.01580
C1105       C  0.72826615  0.14297757  0.37608997     0.03410
C1106       C  0.71328208  0.13573608  0.39352768    -0.04460
C1107       C  0.70052368  0.16278053  0.40023152    -0.01570
C1108       C  0.70184329  0.19531835  0.38804633     0.03400
C1109       C  0.74509568  0.18374192  0.34689832     0.38050
C1110       C  0.68558391  0.15747339  0.41903299     0.38040
C1111       C  0.68885747  0.22307315  0.39485187     0.36470
C1112       C  0.74239752  0.11690107  0.37008374     0.36470
N1113       N  0.67858495  0.24526104  0.40029130    -0.38350
N1114       N  0.75366672  0.09617417  0.36511519    -0.38350
N1115       N  0.67366751  0.15356346  0.43405208    -0.37800
N1116       N  0.75755346  0.19003664  0.33320197    -0.37800
C1117       C  0.51477624  0.33186840  0.26766711    -0.04460
C1118       C  0.52101767  0.36443707  0.25804706    -0.01580
C1119       C  0.50873603  0.38562365  0.24296212     0.03410
C1120       C  0.49003560  0.37468857  0.23733988    -0.04460
C1121       C  0.48374440  0.34224007  0.24713695    -0.01570
C1122       C  0.49604849  0.32098601  0.26213044     0.03400
C1123       C  0.53990498  0.37698273  0.26439712     0.38050
C1124       C  0.46480603  0.32978506  0.24099117     0.38040
C1125       C  0.48965799  0.28715525  0.27092673     0.36470
C1126       C  0.51514492  0.41935775  0.23401624     0.36470
N1127       N  0.48461465  0.26008722  0.27782122    -0.38350
N1128       N  0.52020822  0.44635070  0.22699138    -0.38350
N1129       N  0.44971745  0.31960610  0.23625465    -0.37800
N1130       N  0.55496069  0.38714485  0.26935768    -0.37800
C1131       C  0.54294849  0.19215344  0.35899488    -0.04460
C1132       C  0.55074618  0.19088277  0.38441585    -0.01580
C1133       C  0.55049326  0.15974998  0.39900547     0.03410
C1134       C  0.54229792  0.12912726  0.38854673    -0.04460
C1135       C  0.53415944  0.13071014  0.36319234    -0.01570
C1136       C  0.53467792  0.16187525  0.34850300     0.03400
C1137       C  0.56008581  0.22127314  0.39526474     0.38050
C1138       C  0.52498271  0.10045472  0.35201014     0.38040
C1139       C  0.52636249  0.16286742  0.32266610     0.36470
C1140       C  0.55960156  0.15930806  0.42438421     0.36470
N1141       N  0.51974318  0.16361327  0.30204476    -0.38350
N1142       N  0.56694092  0.15915327  0.44456342    -0.38350
N1143       N  0.51766470  0.07637361  0.34300416    -0.37800
N1144       N  0.56754313  0.24547643  0.40386496    -0.37800
C1145       C  0.55260801  0.43967616  0.39145987    -0.04460
C1146       C  0.56183356  0.43786297  0.36747718    -0.01580
C1147       C  0.56291847  0.40609929  0.35427289     0.03410
C1148       C  0.55356353  0.37618828  0.36418772    -0.04460
C1149       C  0.54496520  0.37805450  0.38897517    -0.01570
C1150       C  0.54512675  0.40946253  0.40286258     0.03400
C1151       C  0.57101420  0.46855555  0.35691213     0.38050
C1152       C  0.53593473  0.34799598  0.40062009     0.38040
C1153       C  0.53763140  0.41057862  0.42896036     0.36470
C1154       C  0.57429885  0.40467296  0.33100046     0.36470
N1155       N  0.53196327  0.41103959  0.44993132    -0.38350
N1156       N  0.58369433  0.40390667  0.31274164    -0.38350
N1157       N  0.52863292  0.32421482  0.41001369    -0.37800
N1158       N  0.57835459  0.49299816  0.34858840    -0.37800
C1159       C  0.60969290  0.27741231  0.31196263    -0.04460
C1160       C  0.62022999  0.25296083  0.32645683    -0.01580
C1161       C  0.64021192  0.25448687  0.32689235     0.03410
C1162       C  0.64984753  0.28172837  0.31392938    -0.04460
C1163       C  0.63923507  0.30564408  0.29876443    -0.01570
C1164       C  0.61921940  0.30314805  0.29751773     0.03400
C1165       C  0.61042732  0.22622178  0.34108051     0.38050
C1166       C  0.64871470  0.33401544  0.28561523     0.38040
C1167       C  0.60834705  0.32829229  0.28254325     0.36470
C1168       C  0.65073642  0.22714900  0.34006928     0.36470
N1169       N  0.59966040  0.34829384  0.27056470    -0.38350
N1170       N  0.65889813  0.20488375  0.35035936    -0.38350
N1171       N  0.65626119  0.35674836  0.27521093    -0.37800
N1172       N  0.60255898  0.20505972  0.35279306    -0.37800
C1173       C  0.74055789  0.24900920  0.26396239    -0.04460
C1174       C  0.74188444  0.21240224  0.26289655    -0.01580
C1175       C  0.75336705  0.19628262  0.24413668     0.03410
C1176       C  0.76311969  0.21663996  0.22582775    -0.04460
C1177       C  0.76160116  0.25330373  0.22676872    -0.01570
C1178       C  0.75024118  0.26937042  0.24565364     0.03400
C1179       C  0.73068697  0.19125307  0.28033030     0.38050
C1180       C  0.77269330  0.27475431  0.20940127     0.38040
C1181       C  0.74881888  0.30691343  0.24662066     0.36470
C1182       C  0.75489897  0.15876555  0.24339587     0.36470
N1183       N  0.74763424  0.33685401  0.24739226    -0.38350
N1184       N  0.75620111  0.12883270  0.24282127    -0.38350
N1185       N  0.78169828  0.29217302  0.19596115    -0.37800
N1186       N  0.72154481  0.17431705  0.29394497    -0.37800
C1187       C  0.98989114  0.13148792  0.22559820    -0.04460
C1188       C  0.98143836  0.11441087  0.24707210    -0.01580
C1189       C  0.99177338  0.08987471  0.26200430     0.03410
C1190       C  0.01107281  0.08268355  0.25661629    -0.04460
C1191       C  0.01954958  0.09967201  0.23515264    -0.01570
C1192       C  0.00914595  0.12391656  0.21997861     0.03400
C1193       C  0.96202475  0.12197703  0.25440088     0.38050
C1194       C  0.03920225  0.09296833  0.22855408     0.38040
C1195       C  0.01870213  0.14131553  0.19874971     0.36470
C1196       C  0.98216096  0.07181870  0.28288913     0.36470
N1197       N  0.02646207  0.15509784  0.18193281    -0.38350
N1198       N  0.97441667  0.05757560  0.29950337    -0.38350
N1199       N  0.05484635  0.08776467  0.22310325    -0.37800
N1200       N  0.94657988  0.12790927  0.26043756    -0.37800
C1201       C  0.89733492  0.18110452  0.18334046    -0.04460
C1202       C  0.88797230  0.14963461  0.17733689    -0.01580
C1203       C  0.86802491  0.14834256  0.17590924     0.03410
C1204       C  0.85723150  0.17786775  0.18216598    -0.04460
C1205       C  0.86652710  0.20846533  0.19053507    -0.01570
C1206       C  0.88658167  0.21007518  0.19113621     0.03400
C1207       C  0.89882875  0.11800050  0.17393458     0.38050
C1208       C  0.85550054  0.23905538  0.19677711     0.38040
C1209       C  0.89606547  0.24183719  0.19891580     0.36470
C1210       C  0.85862974  0.11660904  0.16776517     0.36470
N1211       N  0.90361381  0.26720156  0.20516741    -0.38350
N1212       N  0.85123300  0.09131915  0.16104848    -0.38350
N1213       N  0.84669862  0.26351254  0.20159985    -0.37800
N1214       N  0.90731277  0.09247680  0.17175551    -0.37800
C1215       C  0.74421070  0.32946270  0.97639787    -0.04460
C1216       C  0.75346167  0.35935309  0.96636664    -0.01580
C1217       C  0.76327548  0.38238112  0.98311504     0.03410
C1218       C  0.76401117  0.37592752  0.01005634    -0.04460
C1219       C  0.75541753  0.34535891  0.01982131    -0.01570
C1220       C  0.74536738  0.32261418  0.00321747     0.03400
C1221       C  0.75228809  0.36753973  0.93890880     0.38050
C1222       C  0.75796704  0.33555342  0.04670106     0.38040
C1223       C  0.73670862  0.29146320  0.01375511     0.36470
C1224       C  0.77222199  0.41323373  0.97259816     0.36470
N1225       N  0.72982035  0.26665450  0.02220171    -0.38350
N1226       N  0.77936218  0.43780576  0.96416068    -0.38350
N1227       N  0.75997844  0.32639139  0.06788707    -0.37800
N1228       N  0.75143592  0.37419817  0.91703389    -0.37800
C1229       C  0.79015240  0.02398016  0.10243383    -0.04460
C1230       C  0.78144876  0.05399748  0.09175984    -0.01580
C1231       C  0.78120905  0.08556520  0.10585309     0.03410
C1232       C  0.78957302  0.08765109  0.13093993    -0.04460
C1233       C  0.79783278  0.05740319  0.14185738    -0.01570
C1234       C  0.79834779  0.02609997  0.12768071     0.03400
C1235       C  0.77243835  0.05251626  0.06638011     0.38050
C1236       C  0.80672147  0.05854034  0.16737485     0.38040
C1237       C  0.80837478  0.49660585  0.13889699     0.36470
C1238       C  0.77194625  0.11576216  0.09457557     0.36470
N1239       N  0.81642532  0.47319848  0.14784589    -0.38350
N1240       N  0.76454630  0.13982519  0.08555959    -0.38350
N1241       N  0.81379916  0.05924979  0.18771490    -0.37800
N1242       N  0.76522812  0.05145722  0.04613548    -0.37800
C1243       C  0.79849870  0.27759746  0.13396511    -0.04460
C1244       C  0.78111345  0.29572299  0.13172168    -0.01580
C1245       C  0.78087403  0.33007492  0.12229866     0.03410
C1246       C  0.79779062  0.34523788  0.11314431    -0.04460
C1247       C  0.81530833  0.32829145  0.11762844    -0.01570
C1248       C  0.81565737  0.29438562  0.12764484     0.03400
C1249       C  0.76347928  0.27932067  0.13941864     0.38050
C1250       C  0.83308709  0.34639137  0.11324123     0.38040
C1251       C  0.83368221  0.27633454  0.13032023     0.36470
C1252       C  0.76324410  0.34955242  0.12210924     0.36470
N1253       N  0.84805215  0.26196992  0.13233848    -0.38350
N1254       N  0.74916451  0.36503319  0.12205406    -0.38350
N1255       N  0.84730174  0.36086909  0.11024907    -0.37800
N1256       N  0.74940364  0.26626879  0.14551400    -0.37800
C1257       C  0.98882260  0.46886256  0.01207297    -0.04460
C1258       C  0.98075169  0.48461754  0.98966363    -0.01580
C1259       C  0.99213624  0.50419018  0.97262977     0.03410
C1260       C  0.01185643  0.00812013  0.97749238    -0.04460
C1261       C  0.01995240  0.49208752  0.99982306    -0.01570
C1262       C  0.00853866  0.47262186  0.01690169     0.03400
C1263       C  0.96053447  0.48178559  0.98423748     0.38050
C1264       C  0.04022069  0.49426739  0.00504776     0.38040
C1265       C  0.01738813  0.45562342  0.03912029     0.36470
C1266       C  0.98324643  0.02078743  0.95028163     0.36470
N1267       N  0.02448815  0.44213967  0.05680641    -0.38350
N1268       N  0.97610433  0.03386632  0.93245878    -0.38350
N1269       N  0.05636171  0.99587802  0.00932280    -0.37800
N1270       N  0.94443914  0.47952923  0.97980515    -0.37800
C1271       C  0.95936818  0.34127497  0.10909614    -0.04460
C1272       C  0.97692145  0.32412249  0.11284195    -0.01580
C1273       C  0.97771120  0.29257297  0.12696741     0.03410
C1274       C  0.96090813  0.27777580  0.13679285    -0.04460
C1275       C  0.94335769  0.29447374  0.13236124    -0.01570
C1276       C  0.94264277  0.32653893  0.11924959     0.03400
C1277       C  0.99417800  0.33939023  0.10279840     0.38050
C1278       C  0.92581288  0.27743796  0.13960606     0.38040
C1279       C  0.92449699  0.34382470  0.11549842     0.36470
C1280       C  0.99575007  0.27538066  0.13149590     0.36470
N1281       N  0.91006542  0.35775262  0.11268833    -0.38350
N1282       N  0.01014620  0.26167680  0.13520713    -0.38350
N1283       N  0.91173686  0.26365808  0.14469661    -0.37800
N1284       N  0.00794515  0.35163088  0.09479617    -0.37800
C1285       C  0.95546968  0.02790909  0.10301039    -0.04460
C1286       C  0.97317543  0.04200893  0.11069931    -0.01580
C1287       C  0.97397106  0.07509115  0.12224354     0.03410
C1288       C  0.95718662  0.09463178  0.12497266    -0.04460
C1289       C  0.93979911  0.08161511  0.11536910    -0.01570
C1290       C  0.93874537  0.04766210  0.10582377     0.03400
C1291       C  0.99056257  0.02271068  0.10658957     0.38050
C1292       C  0.92305014  0.10358778  0.11450161     0.38040
C1293       C  0.92022534  0.03229331  0.10104458     0.36470
C1294       C  0.99190395  0.08841347  0.13206108     0.36470
N1295       N  0.90534838  0.02012093  0.09803356    -0.38350
N1296       N  0.00621440  0.09900070  0.13991914    -0.38350
N1297       N  0.90975408  0.12118559  0.11332851    -0.37800
N1298       N  0.00442312  0.00732524  0.10322687    -0.37800
C1299       C  0.89487418  0.42948257  0.04830044    -0.04460
C1300       C  0.88434238  0.39843991  0.04869451    -0.01580
C1301       C  0.86434531  0.39971908  0.04826830     0.03410
C1302       C  0.85483948  0.43209862  0.04796103    -0.04460
C1303       C  0.86540110  0.46296549  0.04524110    -0.01570
C1304       C  0.88541394  0.46155824  0.04503344     0.03400
C1305       C  0.89404371  0.36532735  0.05079195     0.38050
C1306       C  0.85579678  0.49624238  0.04437736     0.38040
C1307       C  0.89634834  0.49307166  0.04133822     0.36470
C1308       C  0.85352746  0.36764411  0.04829686     0.36470
N1309       N  0.90509710  0.01811846  0.03806948    -0.38350
N1310       N  0.84490954  0.34205547  0.04822005    -0.38350
N1311       N  0.84812820  0.02280076  0.04380072    -0.37800
N1312       N  0.90178015  0.33890290  0.05243931    -0.37800
In1313     In  0.95185103  0.93282062  0.06776105     1.36870
C1314       C  0.91532422  0.92917343  0.05492417     0.78450
O1315       O  0.96338577  0.87801349  0.07141114    -0.59990
O1316       O  0.95033081  0.90086233  0.10392935    -0.50900
C1317       C  0.97639006  0.95178438  0.03165561     0.71120
O1318       O  0.96044166  0.93858561  0.02622356    -0.45760
C1319       C  0.95434237  0.99342799  0.09080044     0.75820
O1320       O  0.92791957  0.91526289  0.04114450    -0.57620
O1321       O  0.96354001  0.96732064  0.09892066    -0.47710
O1322       O  0.92139903  0.94341762  0.07526343    -0.54050
C1323       C  0.95804174  0.87442523  0.09450710     0.86000
O1324       O  0.98039986  0.95153281  0.05549752    -0.55940
O1325       O  0.94396802  0.98811954  0.07117254    -0.59240
In1326     In  0.79739441  0.92930778  0.06380776     1.36870
C1327       C  0.79725791  0.87603166  0.09598581     0.78450
O1328       O  0.76908961  0.90792822  0.04991528    -0.59990
O1329       O  0.79135028  0.91008282  0.02305050    -0.50900
C1330       C  0.79118684  0.99046675  0.08759814     0.71120
O1331       O  0.79247345  0.96165861  0.09886011    -0.45760
C1332       C  0.83425519  0.93321617  0.05343758     0.75820
O1333       O  0.78553694  0.90065939  0.09806737    -0.57620
O1334       O  0.82204048  0.94886314  0.03958826    -0.47710
O1335       O  0.80860038  0.87895443  0.07736132    -0.54050
C1336       C  0.77491546  0.89927355  0.02789301     0.86000
O1337       O  0.79167314  0.98803339  0.06318800    -0.55940
O1338       O  0.82761084  0.91750590  0.07269487    -0.59240
In1339     In  0.95521675  0.68117280  0.17089891     1.36870
C1340       C  0.91807189  0.68376076  0.17904038     0.78450
O1341       O  0.95780119  0.73956019  0.17366097    -0.59990
O1342       O  0.96256588  0.71574817  0.13733876    -0.50900
C1343       C  0.97808423  0.65390771  0.20760984     0.71120
O1344       O  0.96062620  0.65899534  0.21056794    -0.45760
C1345       C  0.95698107  0.62617644  0.14092413     0.75820
O1346       O  0.92988509  0.69486618  0.19568500    -0.57620
O1347       O  0.96852695  0.65101499  0.13846015    -0.47710
O1348       O  0.92529135  0.67358696  0.15815609    -0.54050
C1349       C  0.96102868  0.74350243  0.14982917     0.86000
O1350       O  0.98419831  0.66722623  0.18699943    -0.55940
O1351       O  0.94487641  0.62987172  0.15844458    -0.59240
In1352     In  0.79925147  0.68180437  0.16891858     1.36870
C1353       C  0.83639977  0.67748616  0.17814218     0.78450
O1354       O  0.79173007  0.62470408  0.16917501    -0.59990
O1355       O  0.79360860  0.65011362  0.13300389    -0.50900
C1356       C  0.77489007  0.70026612  0.20549876     0.71120
O1357       O  0.78883837  0.68058799  0.21036549    -0.45760
C1358       C  0.79902463  0.74250214  0.14535609     0.75820
O1359       O  0.82471733  0.68445291  0.19575297    -0.57620
O1360       O  0.78763226  0.71860721  0.13896565    -0.47710
O1361       O  0.82900738  0.67129648  0.15631263    -0.54050
C1362       C  0.79129485  0.62177199  0.14478618     0.86000
O1363       O  0.77235782  0.70695520  0.18184080    -0.55940
O1364       O  0.81073472  0.73466839  0.16298732    -0.59240
In1365     In  0.55174344  0.78587033  0.32075531     1.36870
C1366       C  0.58882847  0.77863291  0.31461972     0.78450
O1367       O  0.56073897  0.84041206  0.32715123    -0.59990
O1368       O  0.54399989  0.81665607  0.35573064    -0.50900
C1369       C  0.52743941  0.81085633  0.28506275     0.71120
O1370       O  0.54485351  0.80668202  0.28085822    -0.45760
C1371       C  0.54407872  0.72518127  0.34369483     0.75820
O1372       O  0.57728047  0.77472508  0.29593523    -0.57620
O1373       O  0.54155215  0.75426841  0.35408808    -0.47710
O1374       O  0.58132659  0.78461959  0.33617144    -0.54050
C1375       C  0.55277110  0.84353843  0.34870436     0.86000
O1376       O  0.52200080  0.79796173  0.30621743    -0.55940
O1377       O  0.54878496  0.72689412  0.32010513    -0.59240
In1378     In  0.70842782  0.78749778  0.32428046     1.36870
C1379       C  0.67078750  0.78555180  0.31730203     0.78450
O1380       O  0.70066496  0.73447899  0.33641250    -0.59990
O1381       O  0.72518918  0.75757885  0.35402442    -0.50900
C1382       C  0.72967697  0.76564025  0.28499697     0.71120
O1383       O  0.71401535  0.78082727  0.28137080    -0.45760
C1384       C  0.71531599  0.84893233  0.34730360     0.75820
O1385       O  0.68187822  0.79520812  0.29958733    -0.57620
O1386       O  0.71062970  0.82186821  0.35919007    -0.47710
O1387       O  0.67899160  0.77862807  0.33845652    -0.54050
C1388       C  0.71407589  0.73190060  0.35265468     0.86000
O1389       O  0.73511203  0.76433731  0.30826278    -0.55940
O1390       O  0.71701581  0.84457003  0.32320919    -0.59240
In1391     In  0.55080018  0.53441934  0.42692781     1.36870
C1392       C  0.58821309  0.53912378  0.43244808     0.78450
O1393       O  0.55782651  0.97804289  0.42714089    -0.59990
O1394       O  0.54404118  0.99963312  0.39381904    -0.50900
C1395       C  0.52460484  0.51732073  0.46176240     0.71120
O1396       O  0.54108623  0.52736837  0.46807156    -0.45760
C1397       C  0.54370732  0.59517806  0.40307065     0.75820
O1398       O  0.57733094  0.54024191  0.45175079    -0.57620
O1399       O  0.54292220  0.56620584  0.39190904    -0.47710
O1400       O  0.57989154  0.53663765  0.41086410    -0.54050
C1401       C  0.55126005  0.97327910  0.40465255     0.86000
O1402       O  0.52101482  0.51997103  0.43783884    -0.55940
O1403       O  0.54675361  0.59270786  0.42721344    -0.59240
In1404     In  0.70813649  0.53926036  0.42783438     1.36870
C1405       C  0.67053847  0.53500894  0.43050953     0.78450
O1406       O  0.70210481  0.59543306  0.42565139    -0.59990
O1407       O  0.71816595  0.57340105  0.39549535    -0.50900
C1408       C  0.73095785  0.56252932  0.46531493     0.71120
O1409       O  0.71354205  0.55670484  0.46861955    -0.45760
C1410       C  0.71617405  0.97960031  0.40419802     0.75820
O1411       O  0.68123636  0.52612306  0.44922293    -0.57620
O1412       O  0.71798932  0.50900815  0.39379462    -0.47710
O1413       O  0.67929304  0.54378093  0.41036020    -0.54050
C1414       C  0.71114469  0.60055933  0.40511426     0.86000
O1415       O  0.73721620  0.54987596  0.44456531    -0.55940
O1416       O  0.71180228  0.98073289  0.42792601    -0.59240
In1417     In  0.95818883  0.92759472  0.67346757     1.36870
C1418       C  0.92078708  0.93263864  0.67512415     0.78450
O1419       O  0.95829644  0.98597777  0.67686741    -0.59990
O1420       O  0.97022208  0.96325024  0.64332290    -0.50900
C1421       C  0.98061735  0.90304964  0.71100125     0.71120
O1422       O  0.96285700  0.90452627  0.71301988    -0.45760
C1423       C  0.95910483  0.87049398  0.64564453     0.75820
O1424       O  0.93113000  0.93736019  0.69503438    -0.57620
O1425       O  0.96928626  0.89641998  0.64011608    -0.47710
O1426       O  0.92978661  0.92713424  0.65454654    -0.54050
C1427       C  0.96531032  0.99066727  0.65468112     0.86000
O1428       O  0.98712223  0.91832504  0.69137859    -0.55940
O1429       O  0.94885380  0.87403294  0.66522857    -0.59240
In1430     In  0.80056270  0.92755653  0.67237079     1.36870
C1431       C  0.83822815  0.92596759  0.67449060     0.78450
O1432       O  0.80122112  0.86919234  0.67094847    -0.59990
O1433       O  0.78676766  0.89621762  0.64075341    -0.50900
C1434       C  0.77642694  0.94296413  0.70996036     0.71120
O1435       O  0.79256937  0.92995788  0.71457041    -0.45760
C1436       C  0.79938137  0.98893655  0.64991105     0.75820
O1437       O  0.82818953  0.92481494  0.69465432    -0.57620
O1438       O  0.79293928  0.96194546  0.63915922    -0.47710
O1439       O  0.82877632  0.92637023  0.65363420    -0.54050
C1440       C  0.79283383  0.86759578  0.64924440     0.86000
O1441       O  0.77201521  0.94380146  0.68627322    -0.55940
O1442       O  0.80671627  0.98421288  0.67200394    -0.59240
In1443     In  0.95600712  0.67765745  0.57076954     1.36870
C1444       C  0.91827623  0.67261287  0.56957362     0.78450
O1445       O  0.95878696  0.61903406  0.57109050    -0.59990
O1446       O  0.96779852  0.64694940  0.60434189    -0.50900
C1447       C  0.97812845  0.69783405  0.53200637     0.71120
O1448       O  0.96281606  0.68159825  0.52800562    -0.45760
C1449       C  0.95673427  0.73858548  0.59364333     0.75820
O1450       O  0.92812540  0.67222722  0.54922225    -0.57620
O1451       O  0.96700958  0.71359590  0.60121059    -0.47710
O1452       O  0.92807175  0.67450980  0.59006370    -0.54050
C1453       C  0.96457030  0.61783014  0.59430936     0.86000
O1454       O  0.98312866  0.69964281  0.55541596    -0.55940
O1455       O  0.94591522  0.73199856  0.57468932    -0.59240
In1456     In  0.79770691  0.67832222  0.56979701     1.36870
C1457       C  0.79618537  0.62063739  0.59725008     0.78450
O1458       O  0.76845359  0.66711873  0.55418383    -0.59990
O1459       O  0.79134365  0.66262524  0.52860199    -0.50900
C1460       C  0.79154252  0.74189045  0.58802225     0.71120
O1461       O  0.78456573  0.71507458  0.59821431    -0.45760
C1462       C  0.83538231  0.67939464  0.56881314     0.75820
O1463       O  0.78903063  0.64859899  0.60527888    -0.57620
O1464       O  0.82535868  0.68519138  0.54874883    -0.47710
O1465       O  0.80375745  0.62219687  0.57530483    -0.54050
C1466       C  0.77391785  0.65725086  0.53225120     0.86000
O1467       O  0.80012621  0.73662233  0.56706098    -0.55940
O1468       O  0.82591782  0.67446533  0.58907454    -0.59240
In1469     In  0.54750836  0.54649108  0.82736253     1.36870
C1470       C  0.58525796  0.54493203  0.82207264     0.78450
O1471       O  0.55202814  0.60288849  0.83213261    -0.59990
O1472       O  0.53618733  0.57589792  0.86107350    -0.50900
C1473       C  0.52384888  0.56898143  0.79008144     0.71120
O1474       O  0.54059373  0.55910229  0.78558509    -0.45760
C1475       C  0.54167086  0.98599838  0.85183144     0.75820
O1476       O  0.57423614  0.53027395  0.80597394    -0.57620
O1477       O  0.54616456  0.51375424  0.86302382    -0.47710
O1478       O  0.57677128  0.56002422  0.84007486    -0.54050
C1479       C  0.54316914  0.60421381  0.85319778     0.86000
O1480       O  0.51859835  0.56240655  0.81287205    -0.55940
O1481       O  0.53887926  0.48916212  0.82768841    -0.59240
In1482     In  0.70551826  0.53505821  0.82207707     1.36870
C1483       C  0.66793286  0.54155906  0.81879142     0.78450
O1484       O  0.70266816  0.97768782  0.82278199    -0.59990
O1485       O  0.70925014  0.00390381  0.85817333    -0.50900
C1486       C  0.72899303  0.51576901  0.78452099     0.71120
O1487       O  0.71199348  0.52455016  0.78021053    -0.45760
C1488       C  0.71552754  0.59440133  0.84522820     0.75820
O1489       O  0.67861961  0.55164762  0.80073189    -0.57620
O1490       O  0.72064331  0.56501809  0.85341584    -0.47710
O1491       O  0.67662520  0.52796992  0.83764532    -0.54050
C1492       C  0.70622922  0.97548907  0.84672514     0.86000
O1493       O  0.73434618  0.52105622  0.80753661    -0.55940
O1494       O  0.70657623  0.59329479  0.82394918    -0.59240
In1495     In  0.54917841  0.79475336  0.93117970     1.36870
C1496       C  0.58696956  0.79558496  0.93313311     0.78450
O1497       O  0.55136735  0.73772960  0.92947162    -0.59990
O1498       O  0.54263015  0.76412596  0.89534613    -0.50900
C1499       C  0.52551038  0.77364309  0.96805093     0.71120
O1500       O  0.54287206  0.77963092  0.97240541    -0.45760
C1501       C  0.54126280  0.85716311  0.91126457     0.75820
O1502       O  0.57704310  0.80040348  0.95306858    -0.57620
O1503       O  0.53617890  0.82925784  0.90060423    -0.47710
O1504       O  0.57754338  0.79167398  0.91249989    -0.54050
C1505       C  0.54625424  0.73538048  0.90613328     0.86000
O1506       O  0.51986431  0.78373808  0.94599063    -0.55940
O1507       O  0.54872615  0.85318736  0.93347567    -0.59240
In1508     In  0.70680340  0.78407558  0.92479219     1.36870
C1509       C  0.70618184  0.84337095  0.89934254     0.78450
O1510       O  0.67768714  0.78479750  0.90781078    -0.59990
O1511       O  0.68007626  0.77765938  0.94843786    -0.50900
C1512       C  0.71624694  0.72356099  0.90359417     0.71120
O1513       O  0.72109268  0.75259662  0.89461423    -0.45760
C1514       C  0.73200667  0.80756111  0.95914353     0.75820
O1515       O  0.70961543  0.81488655  0.88831352    -0.57620
O1516       O  0.71592758  0.79620369  0.96579476    -0.47710
O1517       O  0.70282494  0.84094708  0.92318402    -0.54050
C1518       C  0.66917760  0.78213476  0.92905511     0.86000
O1519       O  0.70802964  0.72530984  0.92522588    -0.55940
O1520       O  0.73608078  0.80161180  0.93587617    -0.59240
In1521     In  0.04719801  0.79290791  0.81966216     1.36870
C1522       C  0.08402965  0.78264424  0.81464409     0.78450
O1523       O  0.05834262  0.84205093  0.83549598    -0.59990
O1524       O  0.03023488  0.82713853  0.84573623    -0.50900
C1525       C  0.02747894  0.81925511  0.78004806     0.71120
O1526       O  0.04521656  0.82216428  0.78218994    -0.45760
C1527       C  0.03907218  0.73420075  0.84401838     0.75820
O1528       O  0.07251002  0.77597714  0.79634099    -0.57620
O1529       O  0.03983434  0.76321075  0.85505864    -0.47710
O1530       O  0.07661986  0.79312970  0.83526327    -0.54050
C1531       C  0.04348060  0.84903197  0.84769837     0.86000
O1532       O  0.02008108  0.79920784  0.79650093    -0.55940
O1533       O  0.04074915  0.73528562  0.81964886    -0.59240
In1534     In  0.20341293  0.78134045  0.82620824     1.36870
C1535       C  0.16592791  0.78341051  0.81968456     0.78450
O1536       O  0.19814942  0.72478515  0.83015269    -0.59990
O1537       O  0.21674088  0.74916915  0.85740408    -0.50900
C1538       C  0.22625056  0.76412630  0.78759331     0.71120
O1539       O  0.20884482  0.77054338  0.78421215    -0.45760
C1540       C  0.20955292  0.83992925  0.85237912     0.75820
O1541       O  0.17712701  0.79647755  0.80333428    -0.57620
O1542       O  0.20570228  0.81135669  0.86287431    -0.47710
O1543       O  0.17403053  0.77088231  0.83942303    -0.54050
C1544       C  0.20861500  0.72169188  0.84997191     0.86000
O1545       O  0.23232176  0.77056112  0.81015373    -0.55940
O1546       O  0.21121903  0.83859492  0.82803492    -0.59240
In1547     In  0.04884310  0.54220891  0.92132971     1.36870
C1548       C  0.08643930  0.54191925  0.92533317     0.78450
O1549       O  0.05193408  0.98508512  0.92215026    -0.59990
O1550       O  0.04191628  0.00869820  0.88738551    -0.50900
C1551       C  0.02427800  0.52525972  0.95786443     0.71120
O1552       O  0.04061131  0.53701430  0.96303192    -0.45760
C1553       C  0.04086828  0.60373892  0.90035368     0.75820
O1554       O  0.07593550  0.54678964  0.94465133    -0.57620
O1555       O  0.03792958  0.57557760  0.88868029    -0.47710
O1556       O  0.07764681  0.53925436  0.90407785    -0.54050
C1557       C  0.04608652  0.98090259  0.89922219     0.86000
O1558       O  0.01991199  0.52665725  0.93413398    -0.55940
O1559       O  0.04658795  0.60018177  0.92346379    -0.59240
In1560     In  0.20578286  0.53159785  0.92926281     1.36870
C1561       C  0.16832787  0.52900044  0.93038096     0.78450
O1562       O  0.19727663  0.58592373  0.92170750    -0.59990
O1563       O  0.21856878  0.56408603  0.89793040    -0.50900
C1564       C  0.22880716  0.55396719  0.96682553     0.71120
O1565       O  0.21152295  0.54731602  0.97064545    -0.45760
C1566       C  0.21249253  0.96874821  0.91024858     0.75820
O1567       O  0.17834191  0.52709636  0.95083461    -0.57620
O1568       O  0.21518215  0.99628918  0.89760999    -0.47710
O1569       O  0.17755573  0.53070688  0.90961206    -0.54050
C1570       C  0.20877594  0.59040049  0.90351166     0.86000
O1571       O  0.23470025  0.54440346  0.94501904    -0.55940
O1572       O  0.20784665  0.97339867  0.93358125    -0.59240
In1573     In  0.45592696  0.66864957  0.07528561     1.36870
C1574       C  0.41832926  0.66354937  0.07171757     0.78450
O1575       O  0.45674491  0.60982263  0.07714081    -0.59990
O1576       O  0.46714381  0.63788470  0.10929491    -0.50900
C1577       C  0.47996023  0.68858632  0.03832126     0.71120
O1578       O  0.46244081  0.68434585  0.03419987    -0.45760
C1579       C  0.45731818  0.72861627  0.09949674     0.75820
O1580       O  0.42898463  0.65240502  0.05399677    -0.57620
O1581       O  0.46314287  0.70081923  0.10990279    -0.47710
O1582       O  0.42706198  0.67708406  0.09049334    -0.54050
C1583       C  0.46297128  0.60851579  0.10020219     0.86000
O1584       O  0.48546362  0.67755586  0.06017940    -0.55940
O1585       O  0.45108783  0.72569625  0.07664441    -0.59240
In1586     In  0.29792091  0.65673325  0.07660551     1.36870
C1587       C  0.33553802  0.66133266  0.07320900     0.78450
O1588       O  0.29579639  0.71544115  0.07728271    -0.59990
O1589       O  0.28929195  0.68744711  0.11153208    -0.50900
C1590       C  0.27437863  0.63616196  0.03893465     0.71120
O1591       O  0.29186396  0.64078256  0.03534410    -0.45760
C1592       C  0.29551146  0.59677874  0.10115962     0.75820
O1593       O  0.32462026  0.67325422  0.05568981    -0.57620
O1594       O  0.28647332  0.62334303  0.10830132    -0.47710
O1595       O  0.32690491  0.64783310  0.09194173    -0.54050
C1596       C  0.29155985  0.71662171  0.10098538     0.86000
O1597       O  0.26863717  0.64690886  0.06049774    -0.55940
O1598       O  0.30575769  0.60130153  0.08156117    -0.59240
In1599     In  0.45354022  0.91687097  0.18223653     1.36870
C1600       C  0.45440543  0.85875604  0.15477156     0.78450
O1601       O  0.48318620  0.90635922  0.19766652    -0.59990
O1602       O  0.46014318  0.89980811  0.22318968    -0.50900
C1603       C  0.46166697  0.97877034  0.16058223     0.71120
O1604       O  0.46839659  0.95035891  0.15292470    -0.45760
C1605       C  0.41618198  0.91895570  0.18798180     0.75820
O1606       O  0.45631253  0.88831571  0.14455939    -0.57620
O1607       O  0.42744630  0.92475636  0.20668415    -0.47710
O1608       O  0.45210319  0.85945780  0.17887067    -0.54050
C1609       C  0.47758306  0.89512309  0.21928599     0.86000
O1610       O  0.45226937  0.97586112  0.18122133    -0.55940
O1611       O  0.42403082  0.91336970  0.16659889    -0.59240
In1612     In  0.29678979  0.90630522  0.18179815     1.36870
C1613       C  0.33433623  0.90631505  0.18652562     0.78450
O1614       O  0.29778282  0.84753153  0.18362067    -0.59990
O1615       O  0.28506114  0.87131801  0.15067206    -0.50900
C1616       C  0.27211510  0.93023154  0.21644814     0.71120
O1617       O  0.28883568  0.92161081  0.22264973    -0.45760
C1618       C  0.29574891  0.96500314  0.15532562     0.75820
O1619       O  0.32369609  0.89978891  0.20556795    -0.57620
O1620       O  0.28841188  0.93736146  0.14672177    -0.47710
O1621       O  0.32569006  0.91032078  0.16521085    -0.54050
C1622       C  0.29060786  0.84361941  0.16128247     0.86000
O1623       O  0.26728704  0.92099407  0.19394682    -0.55940
O1624       O  0.30389601  0.96196256  0.17703296    -0.59240
In1625     In  0.45473812  0.67457851  0.67934871     1.36870
C1626       C  0.41705050  0.67825446  0.68067374     0.78450
O1627       O  0.45678953  0.73345870  0.67871235    -0.59990
O1628       O  0.46377006  0.70593618  0.64490457    -0.50900
C1629       C  0.47766265  0.65352912  0.71824374     0.71120
O1630       O  0.46044004  0.66113924  0.72143472    -0.45760
C1631       C  0.45732701  0.61525469  0.65452645     0.75820
O1632       O  0.42729930  0.68877822  0.69935034    -0.57620
O1633       O  0.46664557  0.64178921  0.64782752    -0.47710
O1634       O  0.42626835  0.66624208  0.66199433    -0.54050
C1635       C  0.46108253  0.73514968  0.65502006     0.86000
O1636       O  0.48351761  0.66140030  0.69600173    -0.55940
O1637       O  0.44690103  0.61937915  0.67399395    -0.59240
In1638     In  0.29652168  0.67909543  0.67221275     1.36870
C1639       C  0.33425312  0.67684294  0.67617557     0.78450
O1640       O  0.29915211  0.62095560  0.66965395    -0.59990
O1641       O  0.28223069  0.64639938  0.64131546    -0.50900
C1642       C  0.27386326  0.69560626  0.71142801     0.71120
O1643       O  0.29143487  0.69078268  0.71421087    -0.45760
C1644       C  0.29366725  0.73841584  0.64656489     0.75820
O1645       O  0.32357650  0.66402197  0.69325303    -0.57620
O1646       O  0.28941816  0.70960351  0.63643982    -0.47710
O1647       O  0.32539273  0.69032312  0.65737400    -0.54050
C1648       C  0.28969794  0.61840496  0.64888008     0.86000
O1649       O  0.26759985  0.68778294  0.68924752    -0.55940
O1650       O  0.29937059  0.73661651  0.66976323    -0.59240
In1651     In  0.45151520  0.92710686  0.57312560     1.36870
C1652       C  0.41432743  0.92444330  0.56441383     0.78450
O1653       O  0.45863297  0.86945137  0.57228557    -0.59990
O1654       O  0.45534214  0.89394185  0.60835969    -0.50900
C1655       C  0.47637083  0.94658573  0.53707969     0.71120
O1656       O  0.46010336  0.93487294  0.53144896    -0.45760
C1657       C  0.45396328  0.98569057  0.59910141     0.75820
O1658       O  0.42601360  0.92695766  0.54613697    -0.57620
O1659       O  0.46356745  0.95925496  0.60515652    -0.47710
O1660       O  0.42169099  0.92199211  0.58665770    -0.54050
C1661       C  0.45846232  0.86600562  0.59669083     0.86000
O1662       O  0.48055988  0.94418916  0.56082294    -0.55940
O1663       O  0.44300762  0.98196060  0.57989366    -0.59240
In1664     In  0.29496682  0.93009297  0.56629074     1.36870
C1665       C  0.33249137  0.93223279  0.56259188     0.78450
O1666       O  0.29412689  0.48890850  0.56517704    -0.59990
O1667       O  0.28446563  0.96333765  0.59897347    -0.50900
C1668       C  0.27194132  0.90696712  0.52872720     0.71120
O1669       O  0.28889380  0.91562025  0.52461315    -0.45760
C1670       C  0.29317917  0.87049476  0.59200208     0.75820
O1671       O  0.32173922  0.94140532  0.54401288    -0.57620
O1672       O  0.28392579  0.89701329  0.59871485    -0.47710
O1673       O  0.32400173  0.92405009  0.58311540    -0.54050
C1674       C  0.28834901  0.49170616  0.58813556     0.86000
O1675       O  0.26607781  0.91524861  0.55082155    -0.55940
O1676       O  0.30346792  0.87533320  0.57251955    -0.59240
In1677     In  0.04675352  0.54062995  0.31289101     1.36870
C1678       C  0.04455581  0.59719521  0.34124273     0.78450
O1679       O  0.07604333  0.55142320  0.32747387    -0.59990
O1680       O  0.07302928  0.53370428  0.28872524    -0.50900
C1681       C  0.03967919  0.97805553  0.33322033     0.71120
O1682       O  0.03059299  0.00474909  0.33959632    -0.45760
C1683       C  0.02294908  0.56174470  0.27541958     0.75820
O1684       O  0.04453617  0.56728093  0.35135045    -0.57620
O1685       O  0.03969649  0.55203197  0.27100771    -0.47710
O1686       O  0.04587405  0.59786498  0.31695125    -0.54050
C1687       C  0.08407216  0.54431195  0.30646879     0.86000
O1688       O  0.05092022  0.98267816  0.31469719    -0.55940
O1689       O  0.01780137  0.55537792  0.29826055    -0.59240
In1690     In  0.20269428  0.54994831  0.31444645     1.36870
C1691       C  0.20129033  0.99153926  0.34164768     0.78450
O1692       O  0.17287796  0.55084152  0.32829989    -0.59990
O1693       O  0.17738771  0.55823853  0.28789883    -0.50900
C1694       C  0.21031236  0.61083200  0.33758369     0.71120
O1695       O  0.21412731  0.58166154  0.34728127    -0.45760
C1696       C  0.22772392  0.52424450  0.28088920     0.75820
O1697       O  0.20891276  0.51890109  0.35009376    -0.57620
O1698       O  0.21150728  0.53480864  0.27396783    -0.47710
O1699       O  0.19404317  0.99491121  0.31940012    -0.54050
C1700       C  0.16563292  0.55506937  0.30609765     0.86000
O1701       O  0.20430034  0.60912894  0.31443147    -0.55940
O1702       O  0.23209471  0.53221803  0.30382463    -0.59240
In1703     In  0.04564977  0.79020222  0.41702456     1.36870
C1704       C  0.08322883  0.79379470  0.42124799     0.78450
O1705       O  0.05214634  0.73392473  0.41601180    -0.59990
O1706       O  0.03946275  0.75686341  0.38267621    -0.50900
C1707       C  0.02157251  0.77014621  0.45364308     0.71120
O1708       O  0.03754342  0.78323989  0.45900106    -0.45760
C1709       C  0.03813131  0.85132532  0.39465344     0.75820
O1710       O  0.07249158  0.79823783  0.44043345    -0.57620
O1711       O  0.03250661  0.82299497  0.38521143    -0.47710
O1712       O  0.07459005  0.78877445  0.40009377    -0.54050
C1713       C  0.04552668  0.72948622  0.39349103     0.86000
O1714       O  0.01700778  0.77143258  0.43001609    -0.55940
O1715       O  0.04566051  0.84869520  0.41685378    -0.59240
In1716     In  0.20276780  0.80063331  0.42139187     1.36870
C1717       C  0.16546222  0.79493812  0.42521732     0.78450
O1718       O  0.19529532  0.85680565  0.42028643    -0.59990
O1719       O  0.20849091  0.83435517  0.38740021    -0.50900
C1720       C  0.22824678  0.82106486  0.45677328     0.71120
O1721       O  0.21184522  0.81075189  0.46277613    -0.45760
C1722       C  0.21046596  0.74010555  0.39797200     0.75820
O1723       O  0.17623638  0.79247153  0.44490728    -0.57620
O1724       O  0.21450061  0.76939394  0.38865049    -0.47710
O1725       O  0.17384189  0.79956184  0.40405602    -0.54050
C1726       C  0.20155729  0.86106554  0.39773727     0.86000
O1727       O  0.23232989  0.81590946  0.43339566    -0.55940
O1728       O  0.20404756  0.74189608  0.42073148    -0.59240
C1729       C  0.10432452  0.79348473  0.42322620    -0.04460
C1730       C  0.11491395  0.77005148  0.40795583    -0.01580
C1731       C  0.13487418  0.76961229  0.40963383     0.03410
C1732       C  0.14451621  0.79283925  0.42622188    -0.04460
C1733       C  0.13408536  0.81627090  0.44147991    -0.01570
C1734       C  0.11403919  0.81658128  0.44003861     0.03400
C1735       C  0.10543343  0.74617978  0.39036465     0.38050
C1736       C  0.14400708  0.84151325  0.45744572     0.38040
C1737       C  0.10354969  0.84224479  0.45460134     0.36470
C1738       C  0.14557087  0.74488138  0.39438755     0.36470
N1739       N  0.09519095  0.86287468  0.46607326    -0.38350
N1740       N  0.15415849  0.72521076  0.38231565    -0.38350
N1741       N  0.15192791  0.86178533  0.47004769    -0.37800
N1742       N  0.09803302  0.72733157  0.37605477    -0.37800
C1743       C  0.21172132  0.64383557  0.35302434    -0.04460
C1744       C  0.20901644  0.64314047  0.38027334    -0.01580
C1745       C  0.20949258  0.67408674  0.39498310     0.03410
C1746       C  0.21209201  0.70676592  0.38275663    -0.04460
C1747       C  0.21487504  0.70736554  0.35541762    -0.01570
C1748       C  0.21482281  0.67622520  0.34083334     0.03400
C1749       C  0.20461070  0.61073305  0.39339460     0.38050
C1750       C  0.21723589  0.74001020  0.34166839     0.38040
C1751       C  0.21805039  0.67776372  0.31310735     0.36470
C1752       C  0.20706206  0.67176751  0.42285630     0.36470
N1753       N  0.22061102  0.67912453  0.29100150    -0.38350
N1754       N  0.20507836  0.66965651  0.44505231    -0.38350
N1755       N  0.21906332  0.76593745  0.33055502    -0.37800
N1756       N  0.20097125  0.58504895  0.40394205    -0.37800
C1757       C  0.20059915  0.89464142  0.38413848    -0.04460
C1758       C  0.20668679  0.92525092  0.39655034    -0.01580
C1759       C  0.20739696  0.95669957  0.38261894     0.03410
C1760       C  0.20090457  0.95818544  0.35644323    -0.04460
C1761       C  0.19403245  0.92731383  0.34451993    -0.01570
C1762       C  0.19393049  0.89583447  0.35836360     0.03400
C1763       C  0.21237386  0.92452755  0.42369751     0.38050
C1764       C  0.18736677  0.92696663  0.31780254     0.38040
C1765       C  0.18616000  0.86473574  0.34636247     0.36470
C1766       C  0.21531642  0.98698594  0.39546559     0.36470
N1767       N  0.17988866  0.83997071  0.33694958    -0.38350
N1768       N  0.22188763  0.51080870  0.40581981    -0.38350
N1769       N  0.18205473  0.92608753  0.29651469    -0.37800
N1770       N  0.21667374  0.92437295  0.44541112    -0.37800
C1771       C  0.03886277  0.94501272  0.34817500    -0.04460
C1772       C  0.02147588  0.92784959  0.35274137    -0.01580
C1773       C  0.02105956  0.89725460  0.36806008     0.03410
C1774       C  0.03792702  0.88437292  0.37962407    -0.04460
C1775       C  0.05527290  0.90181028  0.37519950    -0.01570
C1776       C  0.05575754  0.93174043  0.35940862     0.03400
C1777       C  0.00410941  0.94121870  0.34117710     0.38050
C1778       C  0.07286201  0.88827322  0.38614412     0.38040
C1779       C  0.07369013  0.94949330  0.35531894     0.36470
C1780       C  0.00325055  0.87934271  0.37227922     0.36470
N1781       N  0.08794320  0.96371291  0.35199440    -0.38350
N1782       N  0.98904808  0.86498536  0.37565310    -0.38350
N1783       N  0.08690282  0.87751885  0.39480560    -0.37800
N1784       N  0.99025850  0.95191002  0.33191050    -0.37800
C1785       C  0.04362906  0.62942597  0.35636464    -0.04460
C1786       C  0.03041727  0.65531009  0.34926838    -0.01580
C1787       C  0.03075941  0.68771036  0.36173857     0.03410
C1788       C  0.04470703  0.69477353  0.38101184    -0.04460
C1789       C  0.05752445  0.66810246  0.38869034    -0.01570
C1790       C  0.05684555  0.63548943  0.37649464     0.03400
C1791       C  0.01615015  0.64831534  0.32941701     0.38050
C1792       C  0.07182808  0.67404167  0.40865205     0.38040
C1793       C  0.07040401  0.60870300  0.38381544     0.36470
C1794       C  0.01625317  0.71311944  0.35516488     0.36470
N1795       N  0.08123604  0.58737292  0.38956371    -0.38350
N1796       N  0.00461665  0.73323854  0.34994128    -0.38350
N1797       N  0.08324969  0.67856245  0.42457847    -0.37800
N1798       N  0.00477280  0.64276376  0.31362412    -0.37800
C1799       C  0.14483088  0.55503437  0.30218807    -0.04460
C1800       C  0.13581250  0.52636321  0.29034208    -0.01580
C1801       C  0.11586469  0.52294018  0.29123483     0.03410
C1802       C  0.10484245  0.54884149  0.30323278    -0.04460
C1803       C  0.11388008  0.57879312  0.31334366    -0.01570
C1804       C  0.13382335  0.58150048  0.31327279     0.03400
C1805       C  0.14712158  0.99960535  0.27824532     0.38050
C1806       C  0.10268482  0.60727665  0.32337426     0.38040
C1807       C  0.14309761  0.61152015  0.32469655     0.36470
C1808       C  0.10687487  0.99171398  0.28135429     0.36470
N1809       N  0.15055279  0.63539916  0.33378928    -0.38350
N1810       N  0.09970616  0.96669885  0.27365207    -0.38350
N1811       N  0.09380926  0.63018878  0.33115097    -0.37800
N1812       N  0.15609441  0.97835201  0.26839031    -0.37800
C1813       C  0.26055372  0.88548579  0.51020329    -0.04460
C1814       C  0.26132976  0.89164957  0.48325693    -0.01580
C1815       C  0.25183664  0.86926779  0.46572108     0.03410
C1816       C  0.24083867  0.84096306  0.47498725    -0.04460
C1817       C  0.24043096  0.83440588  0.50194884    -0.01570
C1818       C  0.25032731  0.85629089  0.51940402     0.03400
C1819       C  0.27129177  0.92192362  0.47353291     0.38050
C1820       C  0.23042914  0.80425138  0.51179963     0.38040
C1821       C  0.25060095  0.84762838  0.54682531     0.36470
C1822       C  0.25304778  0.87634553  0.43812672     0.36470
N1823       N  0.25081817  0.84052115  0.56864344    -0.38350
N1824       N  0.25407010  0.88207688  0.41614332    -0.38350
N1825       N  0.22253326  0.78014000  0.51969825    -0.37800
N1826       N  0.27912181  0.94618169  0.46576262    -0.37800
C1827       C  0.39350816  0.92505123  0.56064635    -0.04460
C1828       C  0.38260261  0.89677784  0.56937633    -0.01580
C1829       C  0.36265641  0.89895925  0.56941166     0.03410
C1830       C  0.35342955  0.92948994  0.56056548    -0.04460
C1831       C  0.36434725  0.95731020  0.55081526    -0.01570
C1832       C  0.38438146  0.95517484  0.55103126     0.03400
C1833       C  0.39198708  0.86530258  0.57830309     0.38050
C1834       C  0.35506478  0.48890246  0.54204937     0.38040
C1835       C  0.39562423  0.98479686  0.54295785     0.36470
C1836       C  0.35170096  0.86944395  0.57841434     0.36470
N1837       N  0.40462226  0.50847772  0.53670171    -0.38350
N1838       N  0.34316589  0.84573472  0.58570853    -0.38350
N1839       N  0.34765269  0.51416169  0.53516956    -0.37800
N1840       N  0.39952597  0.84024311  0.58533464    -0.37800
C1841       C  0.28826927  0.52506301  0.60246390    -0.04460
C1842       C  0.27114491  0.54189638  0.60878422    -0.01580
C1843       C  0.27145939  0.57245273  0.62399378     0.03410
C1844       C  0.28889417  0.58582709  0.63344900    -0.04460
C1845       C  0.30601075  0.56884325  0.62704816    -0.01570
C1846       C  0.30568147  0.53871137  0.61160402     0.03400
C1847       C  0.25324506  0.52780460  0.59955181     0.38050
C1848       C  0.32411866  0.58294518  0.63568180     0.38040
C1849       C  0.32333455  0.52114537  0.60566190     0.36470
C1850       C  0.25382753  0.58954975  0.63053889     0.36470
N1851       N  0.33741330  0.50710456  0.60105177    -0.38350
N1852       N  0.23977369  0.60323431  0.63582477    -0.38350
N1853       N  0.33854409  0.59421701  0.64254600    -0.37800
N1854       N  0.23895671  0.51654483  0.59216090    -0.37800
C1855       C  0.29256815  0.77175515  0.63227071    -0.04460
C1856       C  0.29863168  0.77371063  0.60633882    -0.01580
C1857       C  0.29814550  0.80559835  0.59293689     0.03410
C1858       C  0.29229938  0.83636303  0.60570708    -0.04460
C1859       C  0.28600817  0.83414587  0.63168673    -0.01570
C1860       C  0.28598176  0.80194378  0.64475907     0.03400
C1861       C  0.30621746  0.74318475  0.59363355     0.38050
C1862       C  0.27985635  0.86488462  0.64545484     0.38040
C1863       C  0.27877624  0.79985097  0.67100859     0.36470
C1864       C  0.30345148  0.80611566  0.56579408     0.36470
N1865       N  0.27299274  0.79817370  0.69189481    -0.38350
N1866       N  0.30772224  0.80636899  0.54418716    -0.38350
N1867       N  0.27490989  0.88928509  0.65653107    -0.37800
N1868       N  0.31234042  0.71895110  0.58350041    -0.37800
C1869       C  0.46188504  0.76838686  0.63973140    -0.04460
C1870       C  0.46690188  0.80007491  0.65173118    -0.01580
C1871       C  0.46654574  0.83156274  0.63747801     0.03410
C1872       C  0.46091517  0.83209848  0.61091991    -0.04460
C1873       C  0.45630371  0.80024082  0.59879031    -0.01570
C1874       C  0.45668884  0.76879265  0.61305391     0.03400
C1875       C  0.47257606  0.80051952  0.67885839     0.38050
C1876       C  0.45022506  0.79960171  0.57181295     0.38040
C1877       C  0.45047995  0.73719024  0.60029651     0.36470
C1878       C  0.47225176  0.86335702  0.65043175     0.36470
N1879       N  0.44538414  0.71227028  0.58988629    -0.38350
N1880       N  0.47678862  0.88862155  0.66087698    -0.38350
N1881       N  0.44536064  0.79888310  0.55032115    -0.37800
N1882       N  0.47703302  0.80100861  0.70051204    -0.37800
C1883       C  0.45792244  0.58200467  0.64036000    -0.04460
C1884       C  0.45666682  0.55028200  0.65414771    -0.01580
C1885       C  0.45537797  0.51873000  0.64062189     0.03410
C1886       C  0.45552371  0.51867401  0.61328355    -0.04460
C1887       C  0.45713022  0.55021676  0.59947664    -0.01570
C1888       C  0.45847540  0.58178634  0.61297032     0.03400
C1889       C  0.45702377  0.54988219  0.68230870     0.38050
C1890       C  0.45758188  0.55027714  0.57132232     0.38040
C1891       C  0.45985688  0.61396801  0.59842221     0.36470
C1892       C  0.45294859  0.98648407  0.65487770     0.36470
N1893       N  0.46107655  0.63941915  0.58658530    -0.38350
N1894       N  0.45089452  0.96080420  0.66622030    -0.38350
N1895       N  0.45790467  0.55033711  0.54889480    -0.37800
N1896       N  0.45731816  0.54956990  0.70474607    -0.37800
C1897       C  0.39587754  0.67923922  0.68014182    -0.04460
C1898       C  0.38524588  0.67496711  0.70304979    -0.01580
C1899       C  0.36517002  0.67411549  0.70191632     0.03410
C1900       C  0.35547128  0.67660163  0.67774015    -0.04460
C1901       C  0.36623029  0.68005570  0.65479844    -0.01570
C1902       C  0.38615859  0.68239008  0.65608090     0.03400
C1903       C  0.39487387  0.67031525  0.72782581     0.38050
C1904       C  0.35703101  0.68004402  0.62944756     0.38040
C1905       C  0.39653562  0.68889096  0.63233946     0.36470
C1906       C  0.35464704  0.67109952  0.72585592     0.36470
N1907       N  0.40469178  0.69409611  0.61335924    -0.38350
N1908       N  0.34631869  0.66868004  0.74500225    -0.38350
N1909       N  0.34982879  0.67988253  0.60918069    -0.37800
N1910       N  0.40250244  0.66649158  0.74760924    -0.37800
C1911       C  0.23975585  0.00118390  0.26440716    -0.04460
C1912       C  0.23949548  0.00444991  0.23710918    -0.01580
C1913       C  0.24933832  0.98039254  0.22152707     0.03410
C1914       C  0.25994804  0.95290020  0.23300535    -0.04460
C1915       C  0.26024260  0.94963762  0.26028597    -0.01570
C1916       C  0.25006462  0.97326830  0.27585914     0.03400
C1917       C  0.22951034  0.53321881  0.22489655     0.38050
C1918       C  0.27048560  0.92112626  0.27242355     0.38040
C1919       C  0.24950041  0.96750385  0.30367383     0.36470
C1920       C  0.24900914  0.98500747  0.19357653     0.36470
N1921       N  0.24898920  0.96275524  0.32582464    -0.38350
N1922       N  0.24868771  0.98878644  0.17130765    -0.38350
N1923       N  0.27861903  0.89837176  0.28214450    -0.37800
N1924       N  0.22159487  0.55617032  0.21509921    -0.37800
C1925       C  0.35527460  0.91081946  0.18875318    -0.04460
C1926       C  0.36641004  0.88873033  0.20472187    -0.01580
C1927       C  0.38636199  0.89268571  0.20570754     0.03410
C1928       C  0.39528162  0.91826329  0.19039626    -0.04460
C1929       C  0.38417826  0.94096186  0.17508700    -0.01570
C1930       C  0.36427187  0.93756521  0.17444867     0.03400
C1931       C  0.35752969  0.86068259  0.21898831     0.38050
C1932       C  0.39330846  0.96814811  0.16012150     0.38040
C1933       C  0.35311209  0.96225198  0.15937606     0.36470
C1934       C  0.39778339  0.86938525  0.22155542     0.36470
N1935       N  0.34429644  0.98202689  0.14735403    -0.38350
N1936       N  0.40686755  0.85083374  0.23427176    -0.38350
N1937       N  0.40064170  0.98979843  0.14825551    -0.37800
N1938       N  0.35046876  0.83817196  0.23026214    -0.37800
C1939       C  0.29041062  0.80988380  0.14730430    -0.04460
C1940       C  0.30783007  0.79392727  0.14102503    -0.01580
C1941       C  0.30809339  0.76408571  0.12521964     0.03410
C1942       C  0.29094508  0.74936624  0.11606321    -0.04460
C1943       C  0.27350900  0.76483045  0.12269358    -0.01570
C1944       C  0.27325052  0.79534862  0.13792308     0.03400
C1945       C  0.32559825  0.80898854  0.15003122     0.38050
C1946       C  0.25588155  0.74951269  0.11357109     0.38040
C1947       C  0.25533245  0.81153462  0.14427757     0.36470
C1948       C  0.32608961  0.74852720  0.11825818     0.36470
N1949       N  0.24103771  0.82448249  0.14938979    -0.38350
N1950       N  0.34044596  0.73626533  0.11258719    -0.38350
N1951       N  0.24183392  0.73720701  0.10625711    -0.37800
N1952       N  0.33975444  0.82102386  0.15721245    -0.37800
C1953       C  0.29497247  0.99856559  0.14130226    -0.04460
C1954       C  0.29618680  0.99956355  0.11399675    -0.01580
C1955       C  0.29576829  0.53162441  0.10081921     0.03410
C1956       C  0.29462286  0.56301793  0.11489370    -0.04460
C1957       C  0.29344304  0.56200694  0.14220421    -0.01570
C1958       C  0.29345771  0.52994738  0.15533821     0.03400
C1959       C  0.29876938  0.96778025  0.09939815     0.38050
C1960       C  0.29301519  0.59394277  0.15707046     0.38040
C1961       C  0.29171263  0.52955036  0.18338088     0.36470
C1962       C  0.29622842  0.53205801  0.07267674     0.36470
N1963       N  0.29034820  0.52934653  0.20572138    -0.38350
N1964       N  0.29659291  0.53235798  0.05025136    -0.38350
N1965       N  0.29272161  0.61935613  0.16895813    -0.37800
N1966       N  0.30092751  0.94247000  0.08777360    -0.37800
C1967       C  0.46365972  0.51223786  0.14553814    -0.04460
C1968       C  0.46600762  0.51173102  0.11819236    -0.01580
C1969       C  0.46655808  0.54298625  0.10364644     0.03410
C1970       C  0.46429166  0.57550080  0.11590344    -0.04460
C1971       C  0.46207714  0.57608316  0.14325763    -0.01570
C1972       C  0.46196163  0.54484782  0.15789853     0.03400
C1973       C  0.46685469  0.97900999  0.10440089     0.38050
C1974       C  0.45895825  0.60870912  0.15655547     0.38040
C1975       C  0.46005369  0.54659777  0.18584872     0.36470
C1976       C  0.46952569  0.54137647  0.07586857     0.36470
N1977       N  0.45850980  0.54814603  0.20812961    -0.38350
N1978       N  0.47188836  0.53996882  0.05372777    -0.38350
N1979       N  0.45640526  0.63463785  0.16723421    -0.37800
N1980       N  0.46741604  0.95307882  0.09318418    -0.37800
C1981       C  0.45680392  0.76183072  0.11343951    -0.04460
C1982       C  0.44729180  0.76375975  0.13725396    -0.01580
C1983       C  0.44567205  0.79576913  0.15002423     0.03410
C1984       C  0.45478649  0.82572670  0.13999560    -0.04460
C1985       C  0.46441534  0.82353870  0.11607235    -0.01570
C1986       C  0.46479348  0.79195210  0.10243060     0.03400
C1987       C  0.43830703  0.73305996  0.14805896     0.38050
C1988       C  0.47447377  0.85324765  0.10561045     0.38040
C1989       C  0.47348964  0.79056275  0.07707233     0.36470
C1990       C  0.43364656  0.79782338  0.17265432     0.36470
N1991       N  0.48018210  0.78998640  0.05669125    -0.38350
N1992       N  0.42379919  0.79914083  0.19043723    -0.38350
N1993       N  0.48265186  0.87669508  0.09716896    -0.37800
N1994       N  0.43116416  0.70863917  0.15672027    -0.37800
C1995       C  0.39721457  0.66125172  0.07129816    -0.04460
C1996       C  0.38664498  0.66560279  0.04807199    -0.01580
C1997       C  0.36654782  0.66571418  0.04850060     0.03410
C1998       C  0.35678325  0.66231134  0.07230937    -0.04460
C1999       C  0.36753852  0.65823079  0.09556077    -0.01570
C2000       C  0.38748287  0.65671895  0.09490904     0.03400
C2001       C  0.39637812  0.67093351  0.02372502     0.38050
C2002       C  0.35833863  0.65639286  0.12062767     0.38040
C2003       C  0.39792738  0.64930306  0.11875648     0.36470
C2004       C  0.35609117  0.66876235  0.02422312     0.36470
N2005       N  0.40618398  0.64321441  0.13774528    -0.38350
N2006       N  0.34782657  0.67114271  0.00478838    -0.38350
N2007       N  0.35110428  0.65500478  0.14065039    -0.37800
N2008       N  0.40411542  0.67524125  0.00429208    -0.37800
C2009       C  0.24078313  0.57426219  0.98542002    -0.04460
C2010       C  0.25354352  0.59977944  0.97599831    -0.01580
C2011       C  0.26418314  0.62053793  0.99338975     0.03410
C2012       C  0.26202107  0.61656907  0.02041407    -0.04460
C2013       C  0.24914646  0.59128540  0.02984947    -0.01570
C2014       C  0.23855462  0.57041335  0.01246441     0.03400
C2015       C  0.25516877  0.60606683  0.94833337     0.38050
C2016       C  0.24741865  0.58529698  0.05753475     0.38040
C2017       C  0.22574118  0.54425792  0.02256899     0.36470
C2018       C  0.27704629  0.64664702  0.98333804     0.36470
N2019       N  0.21551744  0.52344342  0.03067397    -0.38350
N2020       N  0.28731092  0.66742366  0.97527819    -0.38350
N2021       N  0.24606846  0.58040993  0.07958983    -0.37800
N2022       N  0.25643417  0.61120492  0.92629849    -0.37800
C2023       C  0.10738872  0.53818640  0.92731044    -0.04460
C2024       C  0.11675912  0.51319509  0.91195015    -0.01580
C2025       C  0.13664701  0.50977540  0.91334533     0.03410
C2026       C  0.14734489  0.53078160  0.93042968    -0.04460
C2027       C  0.13804822  0.55559158  0.94590528    -0.01570
C2028       C  0.11813395  0.55929633  0.94435949     0.03400
C2029       C  0.10599760  0.99030243  0.89497922     0.38050
C2030       C  0.14908462  0.57895646  0.96214348     0.38040
C2031       C  0.10888829  0.58609394  0.95935756     0.36470
C2032       C  0.14607551  0.98445330  0.89714402     0.36470
N2033       N  0.10156132  0.60756047  0.97128321    -0.38350
N2034       N  0.15350422  0.96439762  0.88403817    -0.38350
N2035       N  0.15792435  0.59773072  0.97491763    -0.37800
N2036       N  0.09750545  0.97205720  0.88136456    -0.37800
C2037       C  0.26184556  0.71189745  0.73175060    -0.04460
C2038       C  0.24232014  0.70379411  0.73343891    -0.01580
C2039       C  0.23060265  0.72169919  0.75097825     0.03410
C2040       C  0.23829588  0.74772153  0.76738873    -0.04460
C2041       C  0.25783914  0.75566387  0.76584754    -0.01570
C2042       C  0.26951948  0.73803816  0.74810866     0.03400
C2043       C  0.23429055  0.67614795  0.71772029     0.38050
C2044       C  0.26592073  0.78287169  0.78194694     0.38040
C2045       C  0.28932049  0.74810809  0.74611044     0.36470
C2046       C  0.21071944  0.71209816  0.75272310     0.36470
N2047       N  0.30508850  0.75624385  0.74453448    -0.38350
N2048       N  0.19488789  0.70431981  0.75412088    -0.38350
N2049       N  0.27237260  0.80455922  0.79477106    -0.37800
N2050       N  0.22789287  0.65405636  0.70523716    -0.37800
C2051       C  0.21102316  0.87238599  0.86778780    -0.04460
C2052       C  0.22638992  0.89549525  0.86463648    -0.01580
C2053       C  0.22743243  0.92625716  0.87946902     0.03410
C2054       C  0.21317425  0.93403888  0.89768984    -0.04460
C2055       C  0.19815650  0.91023197  0.90144732    -0.01570
C2056       C  0.19695478  0.87985830  0.88633794     0.03400
C2057       C  0.24136969  0.88723893  0.84659729     0.38050
C2058       C  0.18330889  0.91767526  0.91993376     0.38040
C2059       C  0.18053371  0.85729664  0.88884479     0.36470
C2060       C  0.24345534  0.94952904  0.87641302     0.36470
N2061       N  0.16741112  0.83938700  0.89064813    -0.38350
N2062       N  0.25626481  0.96806430  0.87407686    -0.38350
N2063       N  0.17146157  0.92351475  0.93467216    -0.37800
N2064       N  0.25335047  0.88057567  0.83226303    -0.37800
C2065       C  0.21051787  0.68849857  0.86391643    -0.04460
C2066       C  0.21394013  0.65763131  0.85009305    -0.01580
C2067       C  0.21376454  0.62544528  0.86305244     0.03410
C2068       C  0.21044174  0.62412439  0.89000882    -0.04460
C2069       C  0.20790600  0.65530983  0.90400866    -0.01570
C2070       C  0.20769360  0.68734792  0.89091668     0.03400
C2071       C  0.21785605  0.65895218  0.82253920     0.38050
C2072       C  0.20565707  0.65469834  0.93197423     0.38040
C2073       C  0.20351511  0.71892171  0.90507757     0.36470
C2074       C  0.21615744  0.59374769  0.84830895     0.36470
N2075       N  0.20007882  0.74407319  0.91629759    -0.38350
N2076       N  0.21803103  0.56849525  0.83652126    -0.38350
N2077       N  0.20385406  0.65420966  0.95424852    -0.37800
N2078       N  0.22108453  0.65981852  0.80060196    -0.37800
C2079       C  0.03910807  0.63813990  0.88731020    -0.04460
C2080       C  0.05280977  0.66417517  0.89239880    -0.01580
C2081       C  0.05213714  0.69594474  0.87888146     0.03410
C2082       C  0.03836522  0.70150353  0.85918651    -0.04460
C2083       C  0.02460720  0.67576850  0.85407060    -0.01570
C2084       C  0.02477831  0.64436630  0.86837479     0.03400
C2085       C  0.06849488  0.65764064  0.91024758     0.38050
C2086       C  0.00996012  0.68205805  0.83466546     0.38040
C2087       C  0.00994764  0.61886033  0.86397253     0.36470
C2088       C  0.06623409  0.72247749  0.88461726     0.36470
N2089       N  0.99806477  0.59856883  0.86057401    -0.38350
N2090       N  0.07742376  0.74365379  0.88920576    -0.38350
N2091       N  0.99823421  0.68713540  0.81923642    -0.37800
N2092       N  0.08112380  0.65244729  0.92425296    -0.37800
C2093       C  0.04211796  0.88074536  0.86308517    -0.04460
C2094       C  0.02957472  0.90730578  0.85539310    -0.01580
C2095       C  0.03077651  0.94009997  0.86721061     0.03410
C2096       C  0.04427147  0.94604676  0.88731642    -0.04460
C2097       C  0.05595986  0.91828190  0.89608704    -0.01570
C2098       C  0.05496847  0.88588228  0.88375123     0.03400
C2099       C  0.01578611  0.90114885  0.83480443     0.38050
C2100       C  0.06952613  0.92287441  0.91719089     0.38040
C2101       C  0.06717487  0.85758155  0.89232544     0.36470
C2102       C  0.01797745  0.96741750  0.85859807     0.36470
N2103       N  0.07683097  0.83494021  0.89911376    -0.38350
N2104       N  0.00781270  0.98918540  0.85158867    -0.38350
N2105       N  0.08032577  0.92630927  0.93405339    -0.37800
N2106       N  0.00469216  0.89620484  0.81852981    -0.37800
C2107       C  0.10482920  0.78035266  0.81234231    -0.04460
C2108       C  0.11465220  0.75224855  0.82364187    -0.01580
C2109       C  0.13461888  0.75300421  0.82565524     0.03410
C2110       C  0.14493633  0.78198309  0.81616978    -0.04460
C2111       C  0.13499480  0.80963615  0.80405401    -0.01570
C2112       C  0.11499107  0.80883304  0.80229138     0.03400
C2113       C  0.10416706  0.72254634  0.83332369     0.38050
C2114       C  0.14514441  0.83991774  0.79475971     0.38040
C2115       C  0.10472937  0.83807304  0.79118301     0.36470
C2116       C  0.14442970  0.72371273  0.83748166     0.36470
N2117       N  0.09646072  0.86134991  0.78243066    -0.38350
N2118       N  0.15222826  0.70044552  0.84704133    -0.38350
N2119       N  0.15321016  0.86413864  0.78738485    -0.37800
N2120       N  0.09592031  0.69864289  0.84088834    -0.37800
C2121       C  0.51334646  0.75299687  0.98622693    -0.04460
C2122       C  0.49901163  0.73056721  0.97631763    -0.01580
C2123       C  0.48859332  0.70873773  0.99311581     0.03410
C2124       C  0.49251106  0.70828439  0.02007113    -0.04460
C2125       C  0.50719337  0.72999796  0.02988444    -0.01570
C2126       C  0.51729862  0.75245240  0.01317873     0.03400
C2127       C  0.49537606  0.72852514  0.94859822     0.38050
C2128       C  0.51154487  0.73060153  0.05745572     0.38040
C2129       C  0.53143552  0.77579421  0.02407648     0.36470
C2130       C  0.47414931  0.68592608  0.98233346     0.36470
N2131       N  0.54266786  0.79441743  0.03284388    -0.38350
N2132       N  0.46263908  0.66779307  0.97366080    -0.38350
N2133       N  0.51500536  0.73126519  0.07943108    -0.37800
N2134       N  0.49250233  0.72674812  0.92650890    -0.37800
C2135       C  0.60804681  0.79378259  0.93349338    -0.04460
C2136       C  0.61848383  0.81214472  0.91468720    -0.01580
C2137       C  0.63836447  0.80852955  0.91347338     0.03410
C2138       C  0.64811542  0.78584471  0.93078856    -0.04460
C2139       C  0.63761010  0.76730298  0.94954743    -0.01570
C2140       C  0.61768878  0.77148172  0.95101405     0.03400
C2141       C  0.60879098  0.83510470  0.89649590     0.38050
C2142       C  0.64706024  0.74236778  0.96639477     0.38040
C2143       C  0.60698787  0.75122765  0.96959950     0.36470
C2144       C  0.64866021  0.82879174  0.89441029     0.36470
N2145       N  0.59843183  0.73499916  0.98435838    -0.38350
N2146       N  0.65672447  0.84488559  0.87905828    -0.38350
N2147       N  0.65455782  0.72226789  0.97971261    -0.37800
N2148       N  0.60117446  0.85327433  0.88181573    -0.37800
C2149       C  0.71864116  0.62733752  0.86007542    -0.04460
C2150       C  0.72030494  0.62690399  0.88755262    -0.01580
C2151       C  0.72051369  0.65829699  0.90171789     0.03410
C2152       C  0.71874745  0.69055663  0.88876907    -0.04460
C2153       C  0.71801402  0.69101757  0.86125228    -0.01570
C2154       C  0.71825775  0.65974469  0.84708336     0.03400
C2155       C  0.72092727  0.59425296  0.90167716     0.38050
C2156       C  0.71586263  0.72352722  0.84715915     0.38040
C2157       C  0.71801482  0.66124851  0.81894190     0.36470
C2158       C  0.72255602  0.65720083  0.92973726     0.36470
N2159       N  0.71780501  0.66256269  0.79652262    -0.38350
N2160       N  0.72421705  0.65623485  0.95207263    -0.38350
N2161       N  0.71407151  0.74934649  0.83585135    -0.37800
N2162       N  0.72140072  0.56830062  0.91304569    -0.37800
C2163       C  0.70647321  0.94203023  0.86034904    -0.04460
C2164       C  0.71844644  0.91523940  0.85176587    -0.01580
C2165       C  0.71840298  0.88288685  0.86447424     0.03410
C2166       C  0.70614535  0.87715135  0.88565122    -0.04460
C2167       C  0.69417247  0.90428283  0.89418579    -0.01570
C2168       C  0.69441700  0.93663690  0.88157021     0.03400
C2169       C  0.73129439  0.92140305  0.83038019     0.38050
C2170       C  0.68112411  0.89895249  0.91546798     0.38040
C2171       C  0.68169812  0.96399111  0.88986491     0.36470
C2172       C  0.73160407  0.85622176  0.85633701     0.36470
N2173       N  0.67149258  0.98562843  0.89655362    -0.38350
N2174       N  0.74218817  0.83504219  0.84989428    -0.38350
N2175       N  0.67071056  0.89478177  0.93240992    -0.37800
N2176       N  0.74154107  0.92641733  0.81337400    -0.37800
C2177       C  0.48961015  0.63403197  0.73790745    -0.04140
C2178       C  0.48098711  0.61443780  0.75800134    -0.01580
C2179       C  0.49198103  0.59239435  0.77428497     0.03410
C2180       C  0.51189635  0.58956167  0.77111040    -0.04460
C2181       C  0.52057392  0.60972338  0.75140365    -0.01570
C2182       C  0.50959022  0.63174866  0.73511497     0.03400
C2183       C  0.46062861  0.61607788  0.76194007     0.38050
C2184       C  0.54102347  0.60900962  0.74813074     0.38040
C2185       C  0.51919867  0.65268327  0.71579372     0.36470
C2186       C  0.48248084  0.57216395  0.79411322     0.36470
N2187       N  0.52693888  0.66929442  0.70043268    -0.38350
N2188       N  0.47484636  0.55617793  0.80993332    -0.38350
N2189       N  0.55731436  0.60858248  0.74541182    -0.37800
N2190       N  0.44441518  0.61728703  0.76526599    -0.37800
C2191       C  0.54030064  0.89132112  0.89748487    -0.04460
C2192       C  0.52469949  0.89996085  0.88110563    -0.01580
C2193       C  0.52503074  0.93066096  0.86583957     0.03410
C2194       C  0.54113928  0.95246132  0.86631567    -0.04460
C2195       C  0.55689504  0.94318045  0.88202200    -0.01570
C2196       C  0.55624746  0.91363272  0.89817256     0.03400
C2197       C  0.50805837  0.87780445  0.88049507     0.38050
C2198       C  0.57449930  0.96248777  0.88003205     0.38040
C2199       C  0.57247033  0.90570796  0.91475871     0.36470
C2200       C  0.50871157  0.94007838  0.84998726     0.36470
N2201       N  0.58536782  0.89968281  0.92810885    -0.38350
N2202       N  0.49567867  0.94762741  0.83734204    -0.38350
N2203       N  0.58876121  0.97708448  0.87809735    -0.37800
N2204       N  0.49477466  0.86011366  0.88005506    -0.37800
C2205       C  0.54477113  0.70140089  0.89280361    -0.04460
C2206       C  0.53287589  0.69729182  0.87067210    -0.01580
C2207       C  0.53202295  0.66508438  0.85790405     0.03410
C2208       C  0.54212557  0.63649876  0.86797847    -0.04460
C2209       C  0.55306069  0.63982272  0.89074819    -0.01570
C2210       C  0.55506347  0.67239249  0.90256004     0.03400
C2211       C  0.52119745  0.72570887  0.86114121     0.38050
C2212       C  0.56255348  0.60974320  0.90184742     0.38040
C2213       C  0.56855180  0.67592287  0.92389400     0.36470
C2214       C  0.52050889  0.66108388  0.83459348     0.36470
N2215       N  0.57942756  0.67862276  0.94074091    -0.38350
N2216       N  0.51133426  0.65784619  0.81601901    -0.38350
N2217       N  0.56985560  0.58578574  0.91111977    -0.37800
N2218       N  0.51180628  0.74827842  0.85354969    -0.37800
C2219       C  0.60645699  0.54482947  0.82060821    -0.04460
C2220       C  0.61586630  0.54329028  0.79649949    -0.01580
C2221       C  0.63596170  0.54303539  0.79558058     0.03410
C2222       C  0.64685629  0.54515947  0.81872045    -0.04460
C2223       C  0.63743197  0.54911058  0.84259107    -0.01570
C2224       C  0.61750486  0.54791732  0.84363983     0.03400
C2225       C  0.60497592  0.54316492  0.77248763     0.38050
C2226       C  0.64816275  0.55581289  0.86630664     0.38040
C2227       C  0.60870540  0.54897152  0.86893033     0.36470
C2228       C  0.64531683  0.54015022  0.77077393     0.36470
N2229       N  0.60222925  0.54963324  0.88943181    -0.38350
N2230       N  0.65276012  0.53796554  0.75095169    -0.38350
N2231       N  0.65661585  0.56141494  0.88519369    -0.37800
N2232       N  0.59631227  0.54331125  0.75330217    -0.37800
C2233       C  0.98871302  0.71608248  0.51131476    -0.04460
C2234       C  0.99812963  0.69736417  0.49193670    -0.01580
C2235       C  0.00866746  0.71517788  0.47290007     0.03410
C2236       C  0.00983087  0.75189956  0.47314183    -0.04460
C2237       C  0.00017094  0.77063033  0.49229944    -0.01570
C2238       C  0.98955650  0.75282373  0.51125081     0.03400
C2239       C  0.99745919  0.65972502  0.49210448     0.38050
C2240       C  0.00085154  0.80826240  0.49215368     0.38040
C2241       C  0.97898412  0.77252081  0.53016472     0.36470
C2242       C  0.01877925  0.69539202  0.45359592     0.36470
N2243       N  0.97048556  0.78864941  0.54493789    -0.38350
N2244       N  0.02673228  0.67886952  0.43850599    -0.38350
N2245       N  0.00135611  0.83829006  0.49195623    -0.37800
N2246       N  0.99695960  0.62969656  0.49230771    -0.37800
C2247       C  0.89697908  0.67244805  0.56964919    -0.04460
C2248       C  0.88641300  0.66316147  0.54716524    -0.01580
C2249       C  0.86638764  0.66571071  0.54679017     0.03410
C2250       C  0.85656132  0.67752432  0.56886776    -0.04460
C2251       C  0.86703320  0.68549935  0.59166522    -0.01570
C2252       C  0.88698235  0.68265212  0.59216962     0.03400
C2253       C  0.89592048  0.64951639  0.52454680     0.38050
C2254       C  0.85745989  0.69727683  0.61486712     0.38040
C2255       C  0.89695977  0.69053523  0.61624417     0.36470
C2256       C  0.85592645  0.65452573  0.52389761     0.36470
N2257       N  0.90475610  0.69680158  0.63553236    -0.38350
N2258       N  0.84762560  0.64544853  0.50566290    -0.38350
N2259       N  0.84997373  0.70655303  0.63347117    -0.37800
N2260       N  0.90340590  0.63844781  0.50650223    -0.37800
C2261       C  0.76420443  0.95906030  0.73017022    -0.04460
C2262       C  0.74428427  0.96062175  0.72660139    -0.01580
C2263       C  0.73289501  0.97986563  0.74376580     0.03410
C2264       C  0.74123237  0.99798438  0.76495202    -0.04460
C2265       C  0.76120328  0.99609664  0.76861255    -0.01570
C2266       C  0.77254897  0.97671687  0.75146525     0.03400
C2267       C  0.73528747  0.94176428  0.70545376     0.38050
C2268       C  0.77040605  0.51477330  0.78967696     0.38040
C2269       C  0.79300096  0.97637216  0.75534119     0.36470
C2270       C  0.71246859  0.97995459  0.73967418     0.36470
N2271       N  0.80929188  0.97617969  0.75851993    -0.38350
N2272       N  0.69619851  0.97991249  0.73627821    -0.38350
N2273       N  0.77781353  0.52955704  0.80645594    -0.37800
N2274       N  0.72810797  0.92680001  0.68858477    -0.37800
C2275       C  0.79202048  0.83543399  0.63354807    -0.04460
C2276       C  0.80918513  0.81951409  0.62614840    -0.01580
C2277       C  0.80891180  0.79075365  0.60935051     0.03410
C2278       C  0.79146595  0.77599505  0.60133243    -0.04460
C2279       C  0.77429510  0.79209800  0.60843524    -0.01570
C2280       C  0.77459733  0.82237601  0.62389792     0.03400
C2281       C  0.82725222  0.83325437  0.63529940     0.38050
C2282       C  0.75639548  0.77818090  0.59904921     0.38040
C2283       C  0.75701096  0.83980487  0.63018687     0.36470
C2284       C  0.82668092  0.77659271  0.60015484     0.36470
N2285       N  0.74300903  0.85390472  0.63512123    -0.38350
N2286       N  0.84089088  0.76601904  0.59238976    -0.38350
N2287       N  0.74212587  0.76714543  0.59140157    -0.37800
N2288       N  0.84164449  0.84406921  0.64270009    -0.37800
C2289       C  0.79823050  0.52353401  0.63764503    -0.04460
C2290       C  0.81366301  0.54691841  0.63954730    -0.01580
C2291       C  0.81276762  0.57916848  0.62671842     0.03410
C2292       C  0.79635297  0.58841828  0.61247245    -0.04460
C2293       C  0.78077231  0.56561476  0.61117711    -0.01570
C2294       C  0.78164186  0.53327137  0.62381453     0.03400
C2295       C  0.83072454  0.53759509  0.65398766     0.38050
C2296       C  0.76398329  0.57487346  0.59628330     0.38040
C2297       C  0.76521616  0.51047609  0.62309907     0.36470
C2298       C  0.82894461  0.60247700  0.62772215     0.36470
N2299       N  0.75211742  0.99233222  0.62258663    -0.38350
N2300       N  0.84199610  0.62068856  0.62862872    -0.38350
N2301       N  0.75041271  0.58144993  0.58448448    -0.37800
N2302       N  0.84432275  0.53039562  0.66558742    -0.37800
C2303       C  0.99263107  0.88197394  0.72881703    -0.04460
C2304       C  0.00840223  0.89672235  0.74164652    -0.01580
C2305       C  0.02016223  0.87592071  0.75767997     0.03410
C2306       C  0.01611172  0.84011804  0.76116457    -0.04460
C2307       C  0.00044029  0.82532171  0.74799761    -0.01570
C2308       C  0.98882459  0.84609717  0.73177062     0.03400
C2309       C  0.01208257  0.93363023  0.73914179     0.38050
C2310       C  0.99663268  0.78842880  0.75038879     0.38040
C2311       C  0.97338788  0.83011661  0.71724654     0.36470
C2312       C  0.03592897  0.89193539  0.77149227     0.36470
N2313       N  0.96116969  0.81721842  0.70560107    -0.38350
N2314       N  0.04846211  0.90469947  0.78258450    -0.38350
N2315       N  0.99363325  0.75898435  0.75222188    -0.37800
N2316       N  0.01494065  0.96311192  0.73725037    -0.37800
C2317       C  0.96595390  0.52510895  0.64159530    -0.04460
C2318       C  0.98280958  0.53732179  0.63002870    -0.01580
C2319       C  0.98254379  0.56785543  0.61465556     0.03410
C2320       C  0.96527842  0.58534460  0.60980685    -0.04460
C2321       C  0.94848412  0.57330552  0.62156577    -0.01570
C2322       C  0.94894294  0.54404220  0.63805871     0.03400
C2323       C  0.00051429  0.51908201  0.63468427     0.38050
C2324       C  0.93057505  0.59084782  0.61653171     0.38040
C2325       C  0.93176782  0.53329631  0.65116644     0.36470
C2326       C  0.99996075  0.58124127  0.60374429     0.36470
N2327       N  0.91812512  0.52521734  0.66194663    -0.38350
N2328       N  0.01386220  0.59208000  0.59510343    -0.38350
N2329       N  0.91617229  0.60436430  0.61249540    -0.37800
N2330       N  0.01464590  0.50456605  0.63856166    -0.37800
C2331       C  0.95873030  0.83823824  0.63048418    -0.04460
C2332       C  0.94107305  0.82355489  0.62333003    -0.01580
C2333       C  0.94043076  0.79134692  0.61067074     0.03410
C2334       C  0.95743004  0.77315863  0.60582262    -0.04460
C2335       C  0.97511751  0.78836390  0.61230333    -0.01570
C2336       C  0.97575777  0.82094691  0.62453885     0.03400
C2337       C  0.92348274  0.84169878  0.62881875     0.38050
C2338       C  0.99269685  0.77111367  0.60557341     0.38040
C2339       C  0.99390561  0.83596265  0.63195489     0.36470
C2340       C  0.92217759  0.77694852  0.60300372     0.36470
N2341       N  0.00836487  0.84796306  0.63790545    -0.38350
N2342       N  0.90755079  0.76601243  0.59668339    -0.38350
N2343       N  0.00669411  0.75740206  0.60006290    -0.37800
N2344       N  0.90945734  0.85602845  0.63327743    -0.37800
C2345       C  0.89969074  0.93215580  0.67563104    -0.04460
C2346       C  0.88913278  0.94589463  0.65452765    -0.01580
C2347       C  0.86915478  0.94429675  0.65438462     0.03410
C2348       C  0.85939743  0.92777525  0.67495760    -0.04460
C2349       C  0.87002157  0.91318120  0.69574570    -0.01570
C2350       C  0.89003762  0.91559683  0.69616254     0.03400
C2351       C  0.89873874  0.96185017  0.63272133     0.38050
C2352       C  0.86054013  0.89411110  0.71619118     0.38040
C2353       C  0.90070809  0.89896471  0.71698409     0.36470
C2354       C  0.85879806  0.96051582  0.63306182     0.36470
N2355       N  0.90920205  0.88552558  0.73351289    -0.38350
N2356       N  0.85064099  0.97350347  0.61602143    -0.38350
N2357       N  0.85302944  0.87874505  0.73245673    -0.37800
N2358       N  0.90630656  0.97434993  0.61519819    -0.37800
C2359       C  0.76155459  0.63718573  0.51364056    -0.04460
C2360       C  0.74438771  0.62183533  0.52212706    -0.01580
C2361       C  0.73553664  0.59524013  0.50754301     0.03410
C2362       C  0.74232674  0.58621823  0.48267718    -0.04460
C2363       C  0.75832430  0.60445469  0.47295287    -0.01570
C2364       C  0.76797958  0.62923338  0.48842657     0.03400
C2365       C  0.73520888  0.63402324  0.54545181     0.38050
C2366       C  0.76466299  0.59908484  0.44657778     0.38040
C2367       C  0.78404896  0.64775479  0.47763816     0.36470
C2368       C  0.71956410  0.57685143  0.51869750     0.36470
N2369       N  0.79677733  0.66259824  0.46890241    -0.38350
N2370       N  0.70691092  0.56216071  0.52776718    -0.38350
N2371       N  0.76976456  0.59515341  0.42553875    -0.37800
N2372       N  0.72768725  0.64394905  0.56384123    -0.37800
C2373       C  0.48894573  0.96421147  0.51777121    -0.04460
C2374       C  0.50059504  0.99253929  0.52546578    -0.01580
C2375       C  0.51165053  0.51064386  0.50709468     0.03410
C2376       C  0.51118077  0.00107183  0.48065839    -0.04460
C2377       C  0.49900271  0.97357975  0.47280283    -0.01570
C2378       C  0.48829553  0.95491404  0.49127344     0.03400
C2379       C  0.50087904  0.50414439  0.55221938     0.38050
C2380       C  0.49766092  0.96363299  0.44572668     0.38040
C2381       C  0.47718414  0.92514644  0.48295846     0.36470
C2382       C  0.52296543  0.54015697  0.51541793     0.36470
N2383       N  0.46843105  0.90130507  0.47628104    -0.38350
N2384       N  0.53191771  0.56375139  0.52209391    -0.38350
N2385       N  0.49649509  0.95566509  0.42415454    -0.37800
N2386       N  0.50116121  0.51351197  0.57351353    -0.37800
C2387       C  0.60919600  0.54005815  0.43429674    -0.04460
C2388       C  0.61929034  0.56358766  0.41864061    -0.01580
C2389       C  0.63922833  0.56184702  0.41738035     0.03410
C2390       C  0.64939907  0.53658186  0.43205151    -0.04460
C2391       C  0.63920992  0.51337310  0.44812700    -0.01570
C2392       C  0.61917933  0.51511853  0.44919417     0.03400
C2393       C  0.60908378  0.58999133  0.40390169     0.38050
C2394       C  0.64912992  0.98633582  0.46246651     0.38040
C2395       C  0.60876960  0.98986999  0.46441331     0.36470
C2396       C  0.64907958  0.58640746  0.40085382     0.36470
N2397       N  0.60044898  0.96963150  0.47643434    -0.38350
N2398       N  0.65676895  0.60584808  0.38739942    -0.38350
N2399       N  0.65700618  0.96465143  0.47383381    -0.37800
N2400       N  0.60091233  0.61099894  0.39221114    -0.37800
C2401       C  0.71773559  0.88300500  0.36082654    -0.04460
C2402       C  0.72454657  0.88419038  0.38678667    -0.01580
C2403       C  0.72453295  0.91572658  0.40078615     0.03410
C2404       C  0.71783476  0.94664501  0.38902532    -0.04460
C2405       C  0.71173295  0.94568086  0.36270255    -0.01570
C2406       C  0.71172973  0.91416566  0.34874525     0.03400
C2407       C  0.73186234  0.85298208  0.39917197     0.38050
C2408       C  0.70427430  0.97668090  0.35014472     0.38040
C2409       C  0.70440461  0.91370032  0.32233481     0.36470
C2410       C  0.73167137  0.91625910  0.42726518     0.36470
N2411       N  0.69851689  0.91341157  0.30130719    -0.38350
N2412       N  0.73737244  0.91659671  0.44838513    -0.38350
N2413       N  0.69828648  0.50133253  0.34011531    -0.37800
N2414       N  0.73769927  0.82810802  0.40905510    -0.37800
C2415       C  0.71579515  0.70121445  0.36929660    -0.04460
C2416       C  0.72961448  0.67591528  0.36432024    -0.01580
C2417       C  0.72826615  0.64297756  0.37608996     0.03410
C2418       C  0.71328209  0.63573608  0.39352767    -0.04460
C2419       C  0.70052368  0.66278053  0.40023152    -0.01570
C2420       C  0.70184330  0.69531835  0.38804632     0.03400
C2421       C  0.74509568  0.68374192  0.34689831     0.38050
C2422       C  0.68558392  0.65747339  0.41903299     0.38040
C2423       C  0.68885747  0.72307315  0.39485186     0.36470
C2424       C  0.74239752  0.61690106  0.37008374     0.36470
N2425       N  0.67858495  0.74526104  0.40029130    -0.38350
N2426       N  0.75366673  0.59617417  0.36511518    -0.38350
N2427       N  0.67366751  0.65356346  0.43405208    -0.37800
N2428       N  0.75755346  0.69003663  0.33320196    -0.37800
C2429       C  0.51477624  0.83186840  0.26766710    -0.04460
C2430       C  0.52101767  0.86443706  0.25804703    -0.01580
C2431       C  0.50873603  0.88562364  0.24296210     0.03410
C2432       C  0.49003560  0.87468857  0.23733987    -0.04460
C2433       C  0.48374440  0.84224008  0.24713696    -0.01570
C2434       C  0.49604849  0.82098602  0.26213044     0.03400
C2435       C  0.53990499  0.87698271  0.26439708     0.38050
C2436       C  0.46480602  0.82978507  0.24099119     0.38040
C2437       C  0.48965799  0.78715527  0.27092674     0.36470
C2438       C  0.51514493  0.91935773  0.23401621     0.36470
N2439       N  0.48461464  0.76008724  0.27782124    -0.38350
N2440       N  0.52020823  0.94635068  0.22699135    -0.38350
N2441       N  0.44971744  0.81960612  0.23625468    -0.37800
N2442       N  0.55496070  0.88714482  0.26935762    -0.37800
C2443       C  0.54294850  0.69215344  0.35899487    -0.04460
C2444       C  0.55074620  0.69088277  0.38441585    -0.01580
C2445       C  0.55049327  0.65974997  0.39900547     0.03410
C2446       C  0.54229793  0.62912726  0.38854673    -0.04460
C2447       C  0.53415945  0.63071014  0.36319234    -0.01570
C2448       C  0.53467793  0.66187526  0.34850300     0.03400
C2449       C  0.56008583  0.72127314  0.39526474     0.38050
C2450       C  0.52498271  0.60045472  0.35201014     0.38040
C2451       C  0.52636249  0.66286743  0.32266611     0.36470
C2452       C  0.55960158  0.65930806  0.42438420     0.36470
N2453       N  0.51974318  0.66361327  0.30204476    -0.38350
N2454       N  0.56694093  0.65915327  0.44456342    -0.38350
N2455       N  0.51766470  0.57637361  0.34300417    -0.37800
N2456       N  0.56754315  0.74547642  0.40386495    -0.37800
C2457       C  0.55260801  0.93967616  0.39145986    -0.04460
C2458       C  0.56183355  0.93786298  0.36747717    -0.01580
C2459       C  0.56291846  0.90609930  0.35427287     0.03410
C2460       C  0.55356353  0.87618828  0.36418771    -0.04460
C2461       C  0.54496521  0.87805450  0.38897517    -0.01570
C2462       C  0.54512676  0.90946253  0.40286258     0.03400
C2463       C  0.57101419  0.96855556  0.35691212     0.38050
C2464       C  0.53593476  0.84799597  0.40062010     0.38040
C2465       C  0.53763142  0.91057861  0.42896036     0.36470
C2466       C  0.57429883  0.90467299  0.33100043     0.36470
N2467       N  0.53196329  0.91103958  0.44993132    -0.38350
N2468       N  0.58369430  0.90390670  0.31274160    -0.38350
N2469       N  0.52863296  0.82421479  0.41001370    -0.37800
N2470       N  0.57835457  0.99299817  0.34858838    -0.37800
C2471       C  0.60969290  0.77741231  0.31196263    -0.04460
C2472       C  0.62022999  0.75296083  0.32645683    -0.01580
C2473       C  0.64021192  0.75448687  0.32689235     0.03410
C2474       C  0.64984753  0.78172837  0.31392938    -0.04460
C2475       C  0.63923507  0.80564408  0.29876443    -0.01570
C2476       C  0.61921940  0.80314805  0.29751773     0.03400
C2477       C  0.61042732  0.72622177  0.34108050     0.38050
C2478       C  0.64871470  0.83401544  0.28561523     0.38040
C2479       C  0.60834705  0.82829230  0.28254325     0.36470
C2480       C  0.65073642  0.72714899  0.34006927     0.36470
N2481       N  0.59966041  0.84829385  0.27056470    -0.38350
N2482       N  0.65889812  0.70488374  0.35035936    -0.38350
N2483       N  0.65626119  0.85674837  0.27521094    -0.37800
N2484       N  0.60255898  0.70505971  0.35279304    -0.37800
C2485       C  0.74055789  0.74900920  0.26396239    -0.04460
C2486       C  0.74188444  0.71240224  0.26289654    -0.01580
C2487       C  0.75336704  0.69628262  0.24413668     0.03410
C2488       C  0.76311969  0.71663995  0.22582775    -0.04460
C2489       C  0.76160117  0.75330372  0.22676872    -0.01570
C2490       C  0.75024118  0.76937042  0.24565364     0.03400
C2491       C  0.73068696  0.69125307  0.28033030     0.38050
C2492       C  0.77269331  0.77475431  0.20940128     0.38040
C2493       C  0.74881888  0.80691342  0.24662067     0.36470
C2494       C  0.75489897  0.65876555  0.24339586     0.36470
N2495       N  0.74763425  0.83685400  0.24739226    -0.38350
N2496       N  0.75620110  0.62883270  0.24282126    -0.38350
N2497       N  0.78169830  0.79217302  0.19596116    -0.37800
N2498       N  0.72154480  0.67431705  0.29394496    -0.37800
C2499       C  0.98989115  0.63148792  0.22559820    -0.04460
C2500       C  0.98143837  0.61441087  0.24707210    -0.01580
C2501       C  0.99177338  0.58987472  0.26200430     0.03410
C2502       C  0.01107281  0.58268356  0.25661628    -0.04460
C2503       C  0.01954958  0.59967202  0.23515264    -0.01570
C2504       C  0.00914595  0.62391657  0.21997861     0.03400
C2505       C  0.96202476  0.62197702  0.25440087     0.38050
C2506       C  0.03920226  0.59296835  0.22855407     0.38040
C2507       C  0.01870213  0.64131556  0.19874971     0.36470
C2508       C  0.98216097  0.57181869  0.28288912     0.36470
N2509       N  0.02646208  0.65509787  0.18193282    -0.38350
N2510       N  0.97441668  0.55757559  0.29950337    -0.38350
N2511       N  0.05484635  0.58776469  0.22310325    -0.37800
N2512       N  0.94657988  0.62790925  0.26043755    -0.37800
C2513       C  0.89733492  0.68110452  0.18334047    -0.04460
C2514       C  0.88797229  0.64963461  0.17733690    -0.01580
C2515       C  0.86802490  0.64834255  0.17590924     0.03410
C2516       C  0.85723150  0.67786775  0.18216598    -0.04460
C2517       C  0.86652709  0.70846533  0.19053507    -0.01570
C2518       C  0.88658166  0.71007518  0.19113621     0.03400
C2519       C  0.89882875  0.61800050  0.17393458     0.38050
C2520       C  0.85550053  0.73905538  0.19677710     0.38040
C2521       C  0.89606546  0.74183719  0.19891580     0.36470
C2522       C  0.85862974  0.61660903  0.16776518     0.36470
N2523       N  0.90361380  0.76720156  0.20516741    -0.38350
N2524       N  0.85123300  0.59131915  0.16104849    -0.38350
N2525       N  0.84669862  0.76351254  0.20159984    -0.37800
N2526       N  0.90731276  0.59247680  0.17175551    -0.37800
C2527       C  0.74421070  0.82946270  0.97639788    -0.04460
C2528       C  0.75346169  0.85935307  0.96636665    -0.01580
C2529       C  0.76327549  0.88238111  0.98311505     0.03410
C2530       C  0.76401115  0.87592753  0.01005635    -0.04460
C2531       C  0.75541749  0.84535895  0.01982133    -0.01570
C2532       C  0.74536735  0.82261422  0.00321749     0.03400
C2533       C  0.75228812  0.86753968  0.93890880     0.38050
C2534       C  0.75796696  0.83555351  0.04670110     0.38040
C2535       C  0.73670857  0.79146325  0.01375513     0.36470
C2536       C  0.77222202  0.91323369  0.97259816     0.36470
N2537       N  0.72982029  0.76665457  0.02220174    -0.38350
N2538       N  0.77936223  0.93780570  0.96416067    -0.38350
N2539       N  0.75997832  0.82639152  0.06788712    -0.37800
N2540       N  0.75143597  0.87419810  0.91703389    -0.37800
C2541       C  0.79015240  0.52398016  0.10243382    -0.04460
C2542       C  0.78144876  0.55399748  0.09175983    -0.01580
C2543       C  0.78120905  0.58556520  0.10585308     0.03410
C2544       C  0.78957301  0.58765109  0.13093992    -0.04460
C2545       C  0.79783277  0.55740318  0.14185738    -0.01570
C2546       C  0.79834778  0.52609996  0.12768070     0.03400
C2547       C  0.77243836  0.55251625  0.06638010     0.38050
C2548       C  0.80672146  0.55854033  0.16737484     0.38040
C2549       C  0.80837479  0.99660586  0.13889699     0.36470
C2550       C  0.77194626  0.61576216  0.09457556     0.36470
N2551       N  0.81642533  0.97319849  0.14784589    -0.38350
N2552       N  0.76454631  0.63982519  0.08555958    -0.38350
N2553       N  0.81379915  0.55924978  0.18771490    -0.37800
N2554       N  0.76522813  0.55145722  0.04613546    -0.37800
C2555       C  0.79849870  0.77759745  0.13396510    -0.04460
C2556       C  0.78111344  0.79572299  0.13172169    -0.01580
C2557       C  0.78087403  0.83007493  0.12229867     0.03410
C2558       C  0.79779062  0.84523788  0.11314432    -0.04460
C2559       C  0.81530833  0.82829143  0.11762843    -0.01570
C2560       C  0.81565736  0.79438561  0.12764483     0.03400
C2561       C  0.76347928  0.77932068  0.13941866     0.38050
C2562       C  0.83308709  0.84639135  0.11324121     0.38040
C2563       C  0.83368221  0.77633452  0.13032020     0.36470
C2564       C  0.76324410  0.84955244  0.12210929     0.36470
N2565       N  0.84805215  0.76196989  0.13233845    -0.38350
N2566       N  0.74916452  0.86503323  0.12205415    -0.38350
N2567       N  0.84730173  0.86086906  0.11024903    -0.37800
N2568       N  0.74940364  0.76626880  0.14551403    -0.37800
C2569       C  0.98882258  0.96886257  0.01207294    -0.04460
C2570       C  0.98075168  0.98461758  0.98966361    -0.01580
C2571       C  0.99213623  0.00419023  0.97262976     0.03410
C2572       C  0.01185644  0.50812010  0.97749240    -0.04460
C2573       C  0.01995239  0.99208753  0.99982304    -0.01570
C2574       C  0.00853865  0.97262186  0.01690167     0.03400
C2575       C  0.96053446  0.98178565  0.98423745     0.38050
C2576       C  0.04022067  0.99426738  0.00504774     0.38040
C2577       C  0.01738811  0.95562341  0.03912026     0.36470
C2578       C  0.98324644  0.52078736  0.95028164     0.36470
N2579       N  0.02448814  0.94213964  0.05680637    -0.38350
N2580       N  0.97610433  0.53386624  0.93245878    -0.38350
N2581       N  0.05636172  0.49587805  0.00932281    -0.37800
N2582       N  0.94443913  0.97952930  0.97980512    -0.37800
C2583       C  0.95936816  0.84127501  0.10909617    -0.04460
C2584       C  0.97692143  0.82412252  0.11284198    -0.01580
C2585       C  0.97771118  0.79257300  0.12696744     0.03410
C2586       C  0.96090812  0.77777582  0.13679287    -0.04460
C2587       C  0.94335768  0.79447375  0.13236126    -0.01570
C2588       C  0.94264275  0.82653894  0.11924962     0.03400
C2589       C  0.99417798  0.83939028  0.10279844     0.38050
C2590       C  0.92581287  0.77743796  0.13960607     0.38040
C2591       C  0.92449697  0.84382469  0.11549843     0.36470
C2592       C  0.99575006  0.77538069  0.13149592     0.36470
N2593       N  0.91006539  0.85775260  0.11268833    -0.38350
N2594       N  0.01014619  0.76167683  0.13520714    -0.38350
N2595       N  0.91173685  0.76365806  0.14469661    -0.37800
N2596       N  0.00794513  0.85163093  0.09479621    -0.37800
C2597       C  0.95546966  0.52790911  0.10301038    -0.04460
C2598       C  0.97317541  0.54200895  0.11069930    -0.01580
C2599       C  0.97397104  0.57509116  0.12224354     0.03410
C2600       C  0.95718660  0.59463179  0.12497267    -0.04460
C2601       C  0.93979910  0.58161513  0.11536910    -0.01570
C2602       C  0.93874536  0.54766212  0.10582375     0.03400
C2603       C  0.99056255  0.52271069  0.10658958     0.38050
C2604       C  0.92305013  0.60358780  0.11450161     0.38040
C2605       C  0.92022533  0.53229334  0.10104456     0.36470
C2606       C  0.99190393  0.58841347  0.13206110     0.36470
N2607       N  0.90534836  0.52012097  0.09803354    -0.38350
N2608       N  0.00621438  0.59900069  0.13991917    -0.38350
N2609       N  0.90975406  0.62118561  0.11332852    -0.37800
N2610       N  0.00442310  0.50732525  0.10322688    -0.37800
C2611       C  0.89487417  0.92948257  0.04830043    -0.04460
C2612       C  0.88434237  0.89843990  0.04869448    -0.01580
C2613       C  0.86434530  0.89971908  0.04826828     0.03410
C2614       C  0.85483947  0.93209862  0.04796103    -0.04460
C2615       C  0.86540108  0.96296549  0.04524111    -0.01570
C2616       C  0.88541393  0.96155824  0.04503345     0.03400
C2617       C  0.89404370  0.86532734  0.05079191     0.38050
C2618       C  0.85579677  0.99624238  0.04437740     0.38040
C2619       C  0.89634832  0.99307167  0.04133824     0.36470
C2620       C  0.85352744  0.86764411  0.04829682     0.36470
N2621       N  0.90509712  0.51811845  0.03806946    -0.38350
N2622       N  0.84490953  0.84205547  0.04822000    -0.38350
N2623       N  0.84812822  0.52280076  0.04380066    -0.37800
N2624       N  0.90178014  0.83890289  0.05243926    -0.37800
loop_ 
_geom_bond_atom_site_label_1 
_geom_bond_atom_site_label_2 
_geom_bond_distance 
_geom_bond_site_symmetry_2 
_ccdc_geom_bond_type 
In1           O3   2.269       .  S
In1           O4   2.235       .  S
In1          O12   2.233       .  S
In1           O6   2.243       .  S
In1           O8   2.268       .  S
In1           O9   2.239       .  S
In1          O10   2.222       .  S
In1          O13   2.210       .  S
C2            O8   1.263       .  A
C2           O10   1.257       .  A
C2         C1299   1.477       .  S
O3           C11   1.260       .  A
O4           C11   1.256       .  A
C5           O12   1.259       .  A
C5            O6   1.262       .  A
C5         C1257   1.494       .  S
C7            O9   1.264       .  A
C7           O13   1.260       .  A
C7         C2597   1.474       .  S
C11        C1271   1.482       .  S
In14         O16   2.267       .  S
In14         O17   2.268       .  S
In14         O25   2.298       .  S
In14         O19   2.230       .  S
In14         O21   2.248       .  S
In14         O22   2.276       .  S
In14         O23   2.203       .  S
In14         O26   2.219       .  S
C15          O21   1.264       .  A
C15          O23   1.261       .  A
C15        C1246   1.478       .  S
O16          C24   1.258       .  A
O17          C24   1.257       .  A
C18          O25   1.264       .  A
C18          O19   1.254       .  A
C18        C2541   1.505       .  S
C20          O22   1.264       .  A
C20          O26   1.256       .  A
C20        C1302   1.481       .  S
C24        C1218   1.495       .  S
In27         O29   2.261       .  S
In27         O30   2.245       .  S
In27         O38   2.260       .  S
In27         O32   2.244       .  S
In27         O34   2.269       .  S
In27         O35   2.253       .  S
In27         O36   2.221       .  S
In27         O39   2.202       .  S
C28          O34   1.265       .  A
C28          O36   1.260       .  A
C28        C1201   1.483       .  S
O29          C37   1.261       .  A
O30          C37   1.256       .  A
C31          O38   1.259       .  A
C31          O32   1.256       .  A
C31        C1187   1.509       .  S
C33          O35   1.262       .  A
C33          O39   1.257       .  A
C33        C1288   1.470       .  S
C37        C1274   1.480       .  S
In40         O42   2.262       .  S
In40         O43   2.254       .  S
In40         O51   2.237       .  S
In40         O45   2.268       .  S
In40         O47   2.257       .  S
In40         O48   2.242       .  S
In40         O49   2.239       .  S
In40         O52   2.212       .  S
C41          O47   1.262       .  A
C41          O49   1.259       .  A
C41        C1204   1.480       .  S
O42          C50   1.264       .  A
O43          C50   1.259       .  A
C44          O51   1.257       .  A
C44          O45   1.264       .  A
C44        C1176   1.486       .  S
C46          O48   1.263       .  A
C46          O52   1.258       .  A
C46        C1243   1.473       .  S
C50        C1232   1.503       .  S
In53         O55   2.219       .  S
In53         O56   2.235       .  S
In53         O64   2.266       .  S
In53         O58   2.254       .  S
In53         O60   2.261       .  S
In53         O61   2.228       .  S
In53         O62   2.223       .  S
In53         O65   2.282       .  S
C54          O60   1.264       .  A
C54          O62   1.258       .  A
C54        C1159   1.478       .  S
O55          C63   1.257       .  A
O56          C63   1.260       .  A
C57          O64   1.261       .  A
C57          O58   1.258       .  A
C57        C1117   1.495       .  S
C59          O61   1.258       .  A
C59          O65   1.266       .  A
C59        C1131   1.497       .  S
C63        C1148   1.493       .  S
In66         O68   2.204       .  S
In66         O69   2.242       .  S
In66         O77   2.247       .  S
In66         O71   2.268       .  S
In66         O73   2.271       .  S
In66         O74   2.243       .  S
In66         O75   2.232       .  S
In66         O78   2.281       .  S
C67          O73   1.263       .  A
C67          O75   1.257       .  A
C67        C1162   1.491       .  S
O68          C76   1.260       .  A
O69          C76   1.263       .  A
C70          O77   1.257       .  A
C70          O71   1.261       .  A
C70        C1173   1.483       .  S
C72          O74   1.253       .  A
C72          O78   1.262       .  A
C72        C1089   1.498       .  S
C76        C1103   1.463       .  S
In79         O90   2.247       .  S
In79         O84   2.252       .  S
In79         O86   2.266       .  S
In79         O87   2.244       .  S
In79         O88   2.220       .  S
In79         O91   2.264       .  S
In79       O1393   2.228   1_545  S
In79       O1394   2.222   1_545  S
C80          O86   1.264       .  A
C80          O88   1.257       .  A
C80        C1075   1.480       .  S
O81       In1391   2.228       .  S
O81          C89   1.259       .  A
O82       In1391   2.222       .  S
O82          C89   1.262       .  A
C83          O90   1.261       .  A
C83          O84   1.263       .  A
C83        C2376   1.500       .  S
C85          O87   1.259       .  A
C85          O91   1.265       .  A
C85        C1134   1.508       .  S
C89        C1145   1.468       .  S
In92         O94   2.208       .  S
In92         O95   2.241       .  S
In92        O103   2.252       .  S
In92         O97   2.240       .  S
In92         O99   2.259       .  S
In92        O100   2.228       .  S
In92        O101   2.221       .  S
In92       O1416   2.270   1_545  S
C93          O99   1.265       .  A
C93         O101   1.259       .  A
C93        C1078   1.493       .  S
O94         C102   1.257       .  A
O95         C102   1.263       .  A
C96         O103   1.262       .  A
C96          O97   1.260       .  A
C96        C1050   1.506       .  S
C98         O104   1.266       .  A
C98        O1412   1.259       .  A
C98        C1092   1.499       .  S
O100       C1410   1.259   1_545  A
C102       C1106   1.487       .  S
O104      In1404   2.270       .  S
In105       O107   2.257       .  S
In105       O108   2.244       .  S
In105       O116   2.257       .  S
In105       O110   2.244       .  S
In105       O112   2.249       .  S
In105       O113   2.249       .  S
In105       O114   2.217       .  S
In105       O117   2.207       .  S
C106        O112   1.267       .  A
C106        O114   1.261       .  A
C106       C1033   1.487       .  S
O107        C115   1.264       .  A
O108        C115   1.260       .  A
C109        O116   1.259       .  A
C109        O110   1.258       .  A
C109        C991   1.483       .  S
C111        O113   1.263       .  A
C111        O117   1.256       .  A
C111       C1019   1.471       .  S
C115       C2317   1.487       .  S
In118       O120   2.250       .  S
In118       O121   2.246       .  S
In118       O129   2.232       .  S
In118       O123   2.257       .  S
In118       O125   2.252       .  S
In118       O126   2.224       .  S
In118       O127   2.219       .  S
In118       O130   2.225       .  S
C119        O125   1.265       .  A
C119        O127   1.259       .  A
C119       C1036   1.493       .  S
O120        C128   1.262       .  A
O121        C128   1.258       .  A
C122        O129   1.258       .  A
C122        O123   1.263       .  A
C122        C949   1.496       .  S
C124        O126   1.262       .  A
C124        O130   1.259       .  A
C124       C2289   1.475       .  S
C128        C963   1.483       .  S
In131       O133   2.267       .  S
In131       O134   2.246       .  S
In131       O142   2.240       .  S
In131       O136   2.267       .  S
In131       O138   2.257       .  S
In131       O139   2.230       .  S
In131       O140   2.217       .  S
In131       O143   2.222       .  S
C132        O138   1.265       .  A
C132        O140   1.259       .  A
C132        C935   1.500       .  S
O133        C141   1.262       .  A
O134        C141   1.257       .  A
C135        O142   1.257       .  A
C135        O136   1.262       .  A
C135        C921   1.483       .  S
C137        O139   1.263       .  A
C137        O143   1.260       .  A
C137       C1022   1.475       .  S
C141       C1008   1.483       .  S
In144       O146   2.247       .  S
In144       O147   2.252       .  S
In144       O155   2.256       .  S
In144       O149   2.248       .  S
In144       O151   2.246       .  S
In144       O152   2.255       .  S
In144       O153   2.221       .  S
In144       O156   2.218       .  S
C145        O151   1.263       .  A
C145        O153   1.258       .  A
C145        C980   1.466       .  S
O146        C154   1.259       .  A
O147        C154   1.261       .  A
C148        O155   1.262       .  A
C148        O149   1.259       .  A
C148        C966   1.485       .  S
C150        O152   1.266       .  A
C150        O156   1.259       .  A
C150        C938   1.494       .  S
C154       C1047   1.505       .  S
In157       O159   2.210       .  S
In157       O160   2.233       .  S
In157       O168   2.247       .  S
In157       O162   2.256       .  S
In157       O164   2.281       .  S
In157       O165   2.230       .  S
In157       O166   2.219       .  S
In157       O169   2.290   1_545  S
C158        O164   1.265       .  A
C158        O166   1.254       .  A
C158        C907   1.496       .  S
O159        C167   1.260       .  A
O160        C167   1.264       .  A
C161        O168   1.261       .  A
C161        O162   1.264       .  A
C161        C868   1.508       .  S
C163       O1477   1.256       .  A
C163       O1481   1.264       .  A
C163        C882   1.491       .  S
O165       C1475   1.256   1_545  A
C167        C896   1.464       .  S
O169       C1475   1.264       .  A
In170       O181   2.239       .  S
In170       O175   2.250       .  S
In170       O177   2.272       .  S
In170       O178   2.249       .  S
In170       O179   2.212       .  S
In170       O182   2.247       .  S
In170      O1484   2.219   1_545  S
In170      O1485   2.225       .  S
C171        O177   1.264       .  A
C171        O179   1.257       .  A
C171        C910   1.491       .  S
O172      In1482   2.219       .  S
O172        C180   1.260       .  A
O173      In1482   2.225       .  S
O173        C180   1.263       .  A
C174        O181   1.259       .  A
C174        O175   1.262       .  A
C174       C2264   1.502   1_545  S
C176        O178   1.258       .  A
C176        O182   1.261       .  A
C176        C837   1.499       .  S
C180        C851   1.466       .  S
In183       O185   2.204       .  S
In183       O186   2.241       .  S
In183       O194   2.249       .  S
In183       O188   2.252       .  S
In183       O190   2.265       .  S
In183       O191   2.247       .  S
In183       O192   2.231       .  S
In183       O195   2.255       .  S
C184        O190   1.264       .  A
C184        O192   1.258       .  A
C184        C823   1.486       .  S
O185        C193   1.257       .  A
O186        C193   1.263       .  A
C187        O194   1.262       .  A
C187        O188   1.262       .  A
C187        C809   1.502       .  S
C189        O191   1.259       .  A
C189        O195   1.265       .  A
C189        C879   1.495       .  S
C193        C893   1.484       .  S
In196       O198   2.222       .  S
In196       O199   2.267       .  S
In196       O207   2.266       .  S
In196       O201   2.226       .  S
In196       O203   2.232       .  S
In196       O204   2.255       .  S
In196       O205   2.210       .  S
In196       O208   2.239       .  S
C197        O203   1.263       .  A
C197        O205   1.258       .  A
C197        C854   1.478       .  S
O198        C206   1.258       .  A
O199        C206   1.266       .  A
C200        O207   1.265       .  A
C200        O201   1.258       .  A
C200        C840   1.498       .  S
C202        O204   1.264       .  A
C202        O208   1.259       .  A
C202       C1215   1.494       .  S
C206        C826   1.494       .  S
In209       O211   2.205       .  S
In209       O212   2.241       .  S
In209       O220   2.255       .  S
In209       O214   2.237       .  S
In209       O216   2.259       .  S
In209       O217   2.217       .  S
In209       O218   2.215       .  S
In209       O221   2.266       .  S
C210        O216   1.266       .  A
C210        O218   1.258       .  A
C210        C795   1.474       .  S
O211        C219   1.257       .  A
O212        C219   1.261       .  A
C213        O220   1.262       .  A
C213        O214   1.258       .  A
C213        C994   1.488       .  S
C215        O217   1.257       .  A
C215        O221   1.265       .  A
C215        C770   1.482       .  S
C219        C781   1.463       .  S
In222       O224   2.219       .  S
In222       O225   2.228       .  S
In222       O233   2.246       .  S
In222       O227   2.244       .  S
In222       O229   2.261       .  S
In222       O230   2.225       .  S
In222       O231   2.222       .  S
In222       O234   2.275       .  S
C223        O229   1.264       .  A
C223        O231   1.257       .  A
C223        C798   1.489       .  S
O224        C232   1.260       .  A
O225        C232   1.262       .  A
C226        O233   1.261       .  A
C226        O227   1.261       .  A
C226        C728   1.493       .  S
C228        O230   1.256       .  A
C228        O234   1.264       .  A
C228        C739   1.487       .  S
C232        C753   1.470       .  S
In235       O246   2.230       .  S
In235       O240   2.242       .  S
In235       O242   2.253       .  S
In235       O243   2.245       .  S
In235       O244   2.227       .  S
In235       O247   2.242       .  S
In235      O1549   2.212   1_545  S
In235      O1550   2.229       .  S
C236        O242   1.262       .  A
C236        O244   1.258       .  A
C236        C711   1.485       .  S
O237      In1547   2.212       .  S
O237        C245   1.259       .  A
O238      In1547   2.229       .  S
O238        C245   1.264       .  A
C239        O246   1.260       .  A
C239        O240   1.262       .  A
C239       C1260   1.497       .  S
C241        O243   1.259       .  A
C241        O247   1.262       .  A
C241        C767   1.489       .  S
C245        C784   1.484       .  S
In248       O250   2.209       .  S
In248       O251   2.237       .  S
In248       O259   2.241       .  S
In248       O253   2.254       .  S
In248       O255   2.247       .  S
In248       O257   2.223       .  S
In248      O1568   2.235   1_545  S
In248      O1572   2.257   1_545  S
C249        O255   1.265       .  A
C249        O257   1.260       .  A
C249        C714   1.480       .  S
O250        C258   1.258       .  A
O251        C258   1.262       .  A
C252        O259   1.260       .  A
C252        O253   1.261       .  A
C252        C697   1.494       .  S
C254        O256   1.259       .  A
C254        O260   1.264       .  A
C254        C742   1.489       .  S
O256      In1560   2.235       .  S
C258        C756   1.477       .  S
O260      In1560   2.257       .  S
In261       O263   2.269       .  S
In261       O264   2.250       .  S
In261       O272   2.255       .  S
In261       O266   2.254       .  S
In261       O268   2.272       .  S
In261       O269   2.232       .  S
In261       O270   2.211       .  S
In261       O273   2.226       .  S
C262        O268   1.265       .  A
C262        O270   1.257       .  A
C262        C683   1.490       .  S
O263        C271   1.265       .  A
O264        C271   1.260       .  A
C265        O272   1.261       .  A
C265        O266   1.261       .  A
C265        C812   1.502       .  S
C267        O269   1.263       .  A
C267        O273   1.259       .  A
C267        C669   1.471       .  S
C271        C658   1.508       .  S
In274       O276   2.267       .  S
In274       O277   2.248       .  S
In274       O285   2.248       .  S
In274       O279   2.254       .  S
In274       O281   2.268       .  S
In274       O282   2.234       .  S
In274       O283   2.208       .  S
In274       O286   2.219       .  S
C275        O281   1.266       .  A
C275        O283   1.258       .  A
C275        C686   1.498       .  S
O276        C284   1.263       .  A
O277        C284   1.258       .  A
C278        O285   1.259       .  A
C278        O279   1.260       .  A
C278        C700   1.492       .  S
C280        O282   1.264       .  A
C280        O286   1.260       .  A
C280        C644   1.480       .  S
C284        C630   1.485       .  S
In287       O289   2.263       .  S
In287       O290   2.254       .  S
In287       O298   2.275       .  S
In287       O292   2.250       .  S
In287       O294   2.247       .  S
In287       O295   2.261       .  S
In287       O296   2.221       .  S
In287       O299   2.226       .  S
C288        O294   1.261       .  A
C288        O296   1.256       .  A
C288        C672   1.486       .  S
O289        C297   1.262       .  A
O290        C297   1.260       .  A
C291        O298   1.264       .  A
C291        O292   1.259       .  A
C291       C1967   1.510       .  S
C293        O295   1.263       .  A
C293        O299   1.258       .  A
C293        C616   1.479       .  S
C297       C1120   1.495       .  S
In300       O302   2.267       .  S
In300       O303   2.250       .  S
In300       O311   2.250       .  S
In300       O305   2.267       .  S
In300       O307   2.260       .  S
In300       O308   2.240       .  S
In300       O309   2.221       .  S
In300       O312   2.215       .  S
C301        O307   1.266       .  A
C301        O309   1.260       .  A
C301        C613   1.488       .  S
O302        C310   1.263       .  A
O303        C310   1.258       .  A
C304        O311   1.259       .  A
C304        O305   1.262       .  A
C304        C602   1.499       .  S
C306        O308   1.263       .  A
C306        O312   1.258       .  A
C306        C641   1.480       .  S
C310        C627   1.489       .  S
In313       O315   2.273       .  S
In313       O316   2.242       .  S
In313       O324   2.251       .  S
In313       O318   2.262       .  S
In313       O320   2.269       .  S
In313       O321   2.233       .  S
In313       O322   2.211       .  S
In313       O325   2.214       .  S
C314        O320   1.266       .  A
C314        O322   1.257       .  A
C314        C585   1.492       .  S
O315        C323   1.264       .  A
O316        C323   1.257       .  A
C317        O324   1.259       .  A
C317        O318   1.261       .  A
C317        C865   1.510       .  S
C319        O321   1.264       .  A
C319        O325   1.261       .  A
C319        C571   1.478       .  S
C323        C557   1.503       .  S
In326       O328   2.252       .  S
In326       O329   2.263       .  S
In326       O337   2.253       .  S
In326       O331   2.247       .  S
In326       O333   2.258       .  S
In326       O334   2.237       .  S
In326       O335   2.222       .  S
In326       O338   2.228       .  S
C327        O333   1.263       .  A
C327        O335   1.259       .  A
C327        C588   1.496       .  S
O328        C336   1.260       .  A
O329        C336   1.259       .  A
C330        O337   1.260       .  A
C330        O331   1.258       .  A
C330        C725   1.494       .  S
C332        O334   1.263       .  A
C332        O338   1.260       .  A
C332        C543   1.480       .  S
C336        C532   1.489       .  S
In339       O341   2.278       .  S
In339       O342   2.232       .  S
In339       O350   2.246       .  S
In339       O344   2.258       .  S
In339       O346   2.261       .  S
In339       O347   2.229       .  S
In339       O348   2.229       .  S
In339       O351   2.227       .  S
C340        O346   1.262       .  A
C340        O348   1.258       .  A
C340        C515   1.477       .  S
O341        C349   1.266       .  A
O342        C349   1.256       .  A
C343        O350   1.260       .  A
C343        O344   1.263       .  A
C343       C1061   1.500       .  S
C345        O347   1.260       .  A
C345        O351   1.258       .  A
C345       C1886   1.472       .  S
C349        C560   1.505       .  S
In352       O355   2.252       .  S
In352       O363   2.252       .  S
In352       O357   2.260       .  S
In352       O359   2.260       .  S
In352       O360   2.244       .  S
In352       O361   2.225       .  S
In352       O364   2.215       .  S
In352      O1666   2.267       .  S
C353        O359   1.265       .  A
C353        O361   1.260       .  A
C353        C518   1.483       .  S
O354      In1664   2.267       .  S
O354        C362   1.261       .  A
O355       C1674   1.257       .  A
C356        O363   1.259       .  A
C356        O357   1.260       .  A
C356        C501   1.494       .  S
C358        O360   1.263       .  A
C358        O364   1.258       .  A
C358        C546   1.492       .  S
C362       O1667   1.257       .  A
C362        C529   1.485   1_565  S
In365       O367   2.228       .  S
In365       O368   2.259       .  S
In365       O372   2.244       .  S
In365       O373   2.254       .  S
In365       O374   2.217       .  S
In365       O377   2.240       .  S
In365      O1688   2.253   1_545  S
In365      O1682   2.263       .  S
C366        O372   1.263       .  A
C366        O374   1.258       .  A
C366        C473   1.471       .  S
O367        C375   1.259       .  A
O368        C375   1.264       .  A
C369        O376   1.259       .  A
C369        O370   1.258       .  A
C369        C459   1.487       .  S
O370      In1677   2.263       .  S
C371        O373   1.261       .  A
C371        O377   1.260       .  A
C371       C1190   1.507       .  S
C375        C490   1.484       .  S
O376      In1677   2.253       .  S
In378       O380   2.226       .  S
In378       O381   2.259       .  S
In378       O389   2.283       .  S
In378       O383   2.235       .  S
In378       O385   2.230       .  S
In378       O386   2.263       .  S
In378       O390   2.255       .  S
In378      O1699   2.220   1_545  S
C379        O387   1.258       .  A
C379       O1697   1.260       .  A
C379        C448   1.493       .  S
O380        C388   1.259       .  A
O381        C388   1.264       .  A
C382        O389   1.265       .  A
C382        O383   1.256       .  A
C382        C431   1.505       .  S
C384        O386   1.261       .  A
C384        O390   1.259       .  A
C384       C1911   1.501       .  S
O385       C1691   1.260   1_545  A
O387      In1690   2.220       .  S
C388        C487   1.477       .  S
In391       O393   2.217       .  S
In391       O394   2.231       .  S
In391       O402   2.251       .  S
In391       O396   2.260       .  S
In391       O398   2.255       .  S
In391       O399   2.259       .  S
In391       O400   2.227       .  S
In391       O403   2.253       .  S
C392        O398   1.264       .  A
C392        O400   1.259       .  A
C392        C417   1.488       .  S
O393        C401   1.260       .  A
O394        C401   1.264       .  A
C395        O402   1.258       .  A
C395        O396   1.261       .  A
C395        C924   1.484       .  S
C397        O399   1.259       .  A
C397        O403   1.261       .  A
C397        C462   1.488       .  S
C401        C476   1.487       .  S
In404       O406   2.228       .  S
In404       O407   2.219       .  S
In404       O415   2.245       .  S
In404       O409   2.258       .  S
In404       O411   2.260       .  S
In404       O412   2.243       .  S
In404       O413   2.217       .  S
In404       O416   2.265       .  S
C405        O411   1.265       .  A
C405        O413   1.258       .  A
C405        C420   1.479       .  S
O406        C414   1.259       .  A
O407        C414   1.262       .  A
C408        O415   1.259       .  A
C408        O409   1.263       .  A
C408        C504   1.498       .  S
C410        O412   1.258       .  A
C410        O416   1.265       .  A
C410        C434   1.513       .  S
C414        C445   1.470       .  S
C417        C418   1.418       .  A
C417        C422   1.416       .  A
C418        C419   1.408       .  A
C418        C423   1.452       .  S
C419        C420   1.410       .  A
C419        C426   1.453       .  S
C420        C421   1.411       .  A
C421        C422   1.413       .  A
C421        C424   1.451       .  S
C422        C425   1.451       .  S
C423        N430   1.157       .  T
C424        N429   1.157       .  T
C425        N427   1.157       .  T
C426        N428   1.157       .  T
C431        C432   1.421       .  A
C431        C436   1.413       .  A
C432        C433   1.416       .  A
C432        C437   1.453       .  S
C433        C434   1.419       .  A
C433        C440   1.452       .  S
C434        C435   1.426       .  A
C435        C436   1.418       .  A
C435        C438   1.452       .  S
C436        C439   1.452       .  S
C437        N444   1.157       .  T
C438        N443   1.158       .  T
C439        N441   1.157       .  T
C440        N442   1.158       .  T
C445        C446   1.408       .  A
C445        C450   1.406       .  A
C446        C447   1.408       .  A
C446        C451   1.453       .  S
C447        C448   1.422       .  A
C447        C454   1.452       .  S
C448        C449   1.423       .  A
C449        C450   1.405       .  A
C449        C452   1.452       .  S
C450        C453   1.455       .  S
C451        N458   1.157       .  T
C452        N457   1.157       .  T
C453        N455   1.157       .  T
C454       N1768   1.157       .  T
N456       C1766   1.157   1_545  T
C459        C460   1.413       .  A
C459        C464   1.413       .  A
C460        C461   1.417       .  A
C460        C465   1.449       .  S
C461        C462   1.413       .  A
C461        C468   1.449       .  S
C462        C463   1.414       .  A
C463        C464   1.410       .  A
C463        C466   1.453       .  S
C464        C467   1.453       .  S
C465        N472   1.157   1_455  T
C466        N471   1.157       .  T
C467        N469   1.157       .  T
C468        N470   1.157   1_455  T
C473        C474   1.409       .  A
C473        C478   1.408       .  A
C474        C475   1.406       .  A
C474        C479   1.453       .  S
C475        C476   1.417       .  A
C475        C482   1.452       .  S
C476        C477   1.421       .  A
C477        C478   1.408       .  A
C477        C480   1.452       .  S
C478        C481   1.453       .  S
C479        N486   1.157       .  T
C480        N485   1.158       .  T
C481        N483   1.157       .  T
C482        N484   1.157       .  T
C487        C488   1.412       .  A
C487        C492   1.408       .  A
C488        C489   1.412       .  A
C488       C1805   1.450   1_545  S
C489        C490   1.413       .  A
C489       C1808   1.451   1_545  S
C490        C491   1.416       .  A
C491        C492   1.409       .  A
C491        C494   1.452       .  S
C492        C495   1.452       .  S
C493       C1800   1.450       .  S
C493        N500   1.157       .  T
C494        N499   1.157       .  T
C495        N497   1.157       .  T
C496       C1801   1.451       .  S
C496        N498   1.157       .  T
C501        C502   1.411       .  A
C501        C506   1.418       .  A
C502        C503   1.415       .  A
C502        C507   1.451       .  S
C503        C504   1.421       .  A
C503        C510   1.452       .  S
C504        C505   1.413       .  A
C505        C506   1.414       .  A
C505        C508   1.451       .  S
C506        C509   1.452       .  S
C507        N514   1.157       .  T
C508        N513   1.157       .  T
C509        N511   1.157       .  T
C510        N512   1.158       .  T
C515        C516   1.408       .  A
C515        C520   1.413       .  A
C516        C517   1.408       .  A
C516        C521   1.453       .  S
C517        C518   1.416       .  A
C517        C524   1.451       .  S
C518        C519   1.413       .  A
C519        C520   1.414       .  A
C519       C1834   1.450       .  S
C520        C523   1.451       .  S
C521        N528   1.157       .  T
C522       C1831   1.450       .  S
C522        N527   1.157   1_565  T
C523       N1837   1.157       .  T
C524        N526   1.157       .  T
N525       C1835   1.157   1_545  T
C529        C530   1.411       .  A
C529        C534   1.411       .  A
C530        C531   1.417       .  A
C530        C535   1.449       .  S
C531        C532   1.414       .  A
C531        C538   1.450       .  S
C532        C533   1.415       .  A
C533        C534   1.410       .  A
C533        C536   1.452       .  S
C534        C537   1.452       .  S
C535        N542   1.157       .  T
C536        N541   1.157       .  T
C537        N539   1.157       .  T
C538        N540   1.157       .  T
C543        C544   1.410       .  A
C543        C548   1.412       .  A
C544        C545   1.408       .  A
C544        C549   1.453       .  S
C545        C546   1.421       .  A
C545        C552   1.453       .  S
C546        C547   1.418       .  A
C547        C548   1.410       .  A
C547        C550   1.452       .  S
C548        C551   1.453       .  S
C549        N556   1.157       .  T
C550        N555   1.158       .  T
C551        N553   1.157       .  T
C552        N554   1.158       .  T
C557        C558   1.414       .  A
C557        C562   1.420       .  A
C558        C559   1.416       .  A
C558        C563   1.452       .  S
C559        C560   1.422       .  A
C559        C566   1.452       .  S
C560        C561   1.416       .  A
C561        C562   1.415       .  A
C561        C564   1.452       .  S
C562        C565   1.451       .  S
C563        N570   1.157       .  T
C564        N569   1.158       .  T
C565        N567   1.157       .  T
C566        N568   1.157       .  T
C571        C572   1.415       .  A
C571        C576   1.414       .  A
C572        C573   1.406       .  A
C572        C577   1.453       .  S
C573        C574   1.411       .  A
C573       C1892   1.452   1_545  S
C574       C1657   1.472   1_545  S
C574        C575   1.411       .  A
C575        C576   1.406       .  A
C575        C578   1.453       .  S
C576        C579   1.451       .  S
C577        N584   1.158       .  T
C578        N583   1.157       .  T
C579        N581   1.157       .  T
C580       C1885   1.452       .  S
C580        N582   1.157       .  T
C585        C586   1.415       .  A
C585        C590   1.416       .  A
C586        C587   1.415       .  A
C586        C591   1.451       .  S
C587        C588   1.419       .  A
C587        C594   1.451       .  S
C588        C589   1.418       .  A
C589        C590   1.407       .  A
C589        C592   1.454       .  S
C590        C593   1.454       .  S
C591        N598   1.157       .  T
C592        N597   1.157       .  T
C593        N595   1.157       .  T
C594        N596   1.157       .  T
C599       C1696   1.501       .  S
C599        C600   1.413       .  A
C599        C604   1.421       .  A
C600        C601   1.415       .  A
C600       C1917   1.451       .  S
C601        C602   1.421       .  A
C601        C608   1.452       .  S
C602        C603   1.412       .  A
C603        C604   1.416       .  A
C603        C606   1.451       .  S
C604        C607   1.452       .  S
C605       C1912   1.451       .  S
C605        N612   1.157       .  T
C606        N611   1.157       .  T
C607        N609   1.158       .  T
C608        N610   1.158       .  T
C613        C614   1.414       .  A
C613        C618   1.418       .  A
C614        C615   1.414       .  A
C614        C619   1.450       .  S
C615        C616   1.412       .  A
C615        C622   1.450       .  S
C616        C617   1.408       .  A
C617        C618   1.408       .  A
C617        C620   1.453       .  S
C618        C621   1.452       .  S
C619        N626   1.157       .  T
C620        N625   1.157       .  T
C621        N623   1.157       .  T
C622        N624   1.157       .  T
C627        C628   1.414       .  A
C627        C632   1.413       .  A
C628        C629   1.412       .  A
C628        C633   1.452       .  S
C629        C630   1.412       .  A
C629        C636   1.452       .  S
C630        C631   1.411       .  A
C631        C632   1.417       .  A
C631        C634   1.449       .  S
C632        C635   1.449       .  S
C633        N640   1.157       .  T
C634        N639   1.157       .  T
C635        N637   1.157       .  T
C636        N638   1.157       .  T
C641        C642   1.413       .  A
C641       C1958   1.416       .  A
C642       C1955   1.408       .  A
C642        C647   1.452       .  S
C643        C644   1.416       .  A
C643       C1954   1.408   1_545  A
C643        C650   1.453       .  S
C644        C645   1.413       .  A
C645        C646   1.407       .  A
C645        C648   1.453       .  S
C646       C1953   1.416   1_545  A
C646        C649   1.453       .  S
C647        N654   1.157       .  T
C648        N653   1.157       .  T
C649        N651   1.158       .  T
C650        N652   1.157       .  T
C655       C1603   1.510   1_545  S
C655        C656   1.422       .  A
C655        C660   1.417       .  A
C656        C657   1.417       .  A
C656       C1973   1.451   1_545  S
C657        C658   1.415       .  A
C657        C664   1.452       .  S
C658        C659   1.422       .  A
C659        C660   1.418       .  A
C659        C662   1.452       .  S
C660        C663   1.451       .  S
C661       C1968   1.451       .  S
C661        N668   1.157       .  T
C662        N667   1.158       .  T
C663        N665   1.157       .  T
C664        N666   1.157       .  T
C669        C670   1.408       .  A
C669        C674   1.410       .  A
C670        C671   1.405       .  A
C670        C675   1.453       .  S
C671        C672   1.419       .  A
C671        C678   1.452       .  S
C672        C673   1.417       .  A
C673        C674   1.408       .  A
C673        C676   1.451       .  S
C674        C677   1.451       .  S
C675        N682   1.157       .  T
C676        N681   1.157       .  T
C677        N679   1.157       .  T
C678        N680   1.157       .  T
C683        C684   1.414       .  A
C683        C688   1.414       .  A
C684        C685   1.416       .  A
C684        C689   1.451       .  S
C685        C686   1.420       .  A
C685        C692   1.451       .  S
C686        C687   1.420       .  A
C687        C688   1.407       .  A
C687        C690   1.454       .  S
C688        C691   1.454       .  S
C689        N696   1.157       .  T
C690        N695   1.158       .  T
C691        N693   1.157       .  T
C692        N694   1.158       .  T
C697        C698   1.420       .  A
C697        C702   1.413   1_556  A
C698        C699   1.413       .  A
C698        C703   1.452       .  S
C699        C700   1.412   1_556  A
C699        C706   1.451       .  S
C700        C701   1.419       .  A
C701        C702   1.414       .  A
C701        C704   1.452       .  S
C702        C705   1.451       .  S
C703        N710   1.158       .  T
C704        N709   1.157       .  T
C705        N707   1.157       .  T
C706        N708   1.157       .  T
C711        C712   1.417       .  A
C711        C716   1.414       .  A
C712        C713   1.408       .  A
C712       C2029   1.453   1_545  S
C713        C714   1.411       .  A
C713       C2032   1.452   1_545  S
C714        C715   1.413       .  A
C715        C716   1.411       .  A
C715        C718   1.452       .  S
C716        C719   1.451       .  S
C717       C2024   1.453       .  S
C717        N724   1.157       .  T
C718        N723   1.157       .  T
C719        N721   1.157       .  T
C720       C2025   1.452       .  S
C720        N722   1.157       .  T
C725        C726   1.414       .  A
C725        C730   1.419       .  A
C726        C727   1.413       .  A
C726        C731   1.452       .  S
C727        C728   1.418       .  A
C727        C734   1.452       .  S
C728        C729   1.413       .  A
C729        C730   1.413       .  A
C729        C732   1.452       .  S
C730        C733   1.452       .  S
C731        N738   1.157       .  T
C732        N737   1.157       .  T
C733        N735   1.157       .  T
C734        N736   1.157       .  T
C739        C740   1.411       .  A
C739        C744   1.415       .  A
C740        C741   1.414       .  A
C740        C745   1.450       .  S
C741        C742   1.416       .  A
C741        C748   1.450       .  S
C742        C743   1.414       .  A
C743        C744   1.410       .  A
C743        C746   1.452       .  S
C744        C747   1.453       .  S
C745        N752   1.157       .  T
C746        N751   1.157       .  T
C747        N749   1.157       .  T
C748        N750   1.157       .  T
C753        C754   1.411       .  A
C753        C758   1.410       .  A
C754        C755   1.407       .  A
C754        C759   1.452       .  S
C755        C756   1.413       .  A
C755        C762   1.452       .  S
C756        C757   1.416       .  A
C757        C758   1.405       .  A
C757        C760   1.453       .  S
C758        C761   1.453       .  S
C759        N766   1.157       .  T
C760        N765   1.158       .  T
C761        N763   1.157       .  T
C762        N764   1.157       .  T
C767        C768   1.415       .  A
C767        C772   1.417       .  A
C768        C769   1.407       .  A
C768        C773   1.452       .  S
C769        C770   1.413       .  A
C769        C776   1.454       .  S
C770        C771   1.410       .  A
C771        C772   1.415       .  A
C771        C774   1.450       .  S
C772        C775   1.450       .  S
C773        N780   1.157       .  T
C774        N779   1.157   1_455  T
C775        N777   1.157   1_455  T
C776        N778   1.157       .  T
C781        C782   1.406       .  A
C781        C786   1.406       .  A
C782        C783   1.407       .  A
C782        C787   1.452       .  S
C783        C784   1.419       .  A
C783        C790   1.452       .  S
C784        C785   1.420       .  A
C785        C786   1.404       .  A
C785        C788   1.452       .  S
C786        C789   1.454       .  S
C787        N794   1.157       .  T
C788        N793   1.158       .  T
C789        N791   1.157       .  T
C790        N792   1.157       .  T
C795        C796   1.407       .  A
C795        C800   1.410       .  A
C796        C797   1.409       .  A
C796        C801   1.451       .  S
C797        C798   1.420       .  A
C797        C804   1.453       .  S
C798        C799   1.415       .  A
C799        C800   1.411       .  A
C799        C802   1.451       .  S
C800        C803   1.452       .  S
C801        N808   1.157       .  T
C802        N807   1.157       .  T
C803        N805   1.157       .  T
C804        N806   1.158       .  T
C809        C810   1.421       .  A
C809        C814   1.415   1_556  A
C810        C811   1.416       .  A
C810        C815   1.453       .  S
C811        C812   1.415   1_556  A
C811        C818   1.452       .  S
C812        C813   1.420       .  A
C813        C814   1.416       .  A
C813        C816   1.452       .  S
C814        C817   1.452       .  S
C815        N822   1.158       .  T
C816        N821   1.158       .  T
C817        N819   1.157       .  T
C818        N820   1.157       .  T
C823        C824   1.411       .  A
C823        C828   1.414       .  A
C824        C825   1.409       .  A
C824        C829   1.453       .  S
C825        C826   1.420       .  A
C825        C832   1.453       .  S
C826        C827   1.415       .  A
C827        C828   1.415       .  A
C827        C830   1.450       .  S
C828        C831   1.451       .  S
C829        N836   1.157       .  T
C830        N835   1.157       .  T
C831        N833   1.157       .  T
C832        N834   1.157       .  T
C837        C838   1.421       .  A
C837        C842   1.415       .  A
C838        C839   1.415       .  A
C838        C843   1.452       .  S
C839        C840   1.414       .  A
C839        C846   1.452       .  S
C840        C841   1.420       .  A
C841        C842   1.412       .  A
C841        C844   1.453       .  S
C842        C845   1.453       .  S
C843        N850   1.158       .  T
C844        N849   1.158       .  T
C845        N847   1.157       .  T
C846        N848   1.157       .  T
C851        C852   1.409       .  A
C851        C856   1.407       .  A
C852        C853   1.406       .  A
C852        C857   1.453       .  S
C853        C854   1.416       .  A
C853        C860   1.452       .  S
C854        C855   1.418       .  A
C855        C856   1.404       .  A
C855        C858   1.453       .  S
C856        C859   1.452       .  S
C857        N864   1.157       .  T
C858        N863   1.158       .  T
C859        N861   1.157       .  T
C860        N862   1.157       .  T
C865        C866   1.421       .  A
C865        C870   1.419       .  A
C866        C867   1.417       .  A
C866        C871   1.452       .  S
C867        C868   1.418       .  A
C867        C874   1.452       .  S
C868        C869   1.420       .  A
C869        C870   1.417       .  A
C869        C872   1.452       .  S
C870        C873   1.452       .  S
C871        N878   1.158       .  T
C872        N877   1.158       .  T
C873        N875   1.157       .  T
C874        N876   1.157       .  T
C879        C880   1.418       .  A
C879        C884   1.414       .  A
C880        C881   1.419       .  A
C880        C885   1.450       .  S
C881        C882   1.411       .  A
C881        C888   1.449       .  S
C882        C883   1.413       .  A
C883        C884   1.409       .  A
C883        C886   1.450       .  S
C884        C887   1.452       .  S
C885        N892   1.157       .  T
C886        N891   1.156       .  T
C887        N889   1.157       .  T
C888        N890   1.157       .  T
C893        C894   1.418       .  A
C893        C898   1.420       .  A
C894        C895   1.408       .  A
C894        C899   1.451       .  S
C895        C896   1.406       .  A
C895        C902   1.452       .  S
C896        C897   1.404       .  A
C897        C898   1.403       .  A
C897        C900   1.451       .  S
C898        C901   1.453       .  S
C899        N906   1.157       .  T
C900        N905   1.156       .  T
C901        N903   1.157       .  T
C902        N904   1.157       .  T
C907        C908   1.417       .  A
C907        C912   1.419       .  A
C908        C909   1.417       .  A
C908        C913   1.450       .  S
C909        C910   1.415       .  A
C909        C916   1.450       .  S
C910        C911   1.414       .  A
C911        C912   1.406       .  A
C911        C914   1.455       .  S
C912        C915   1.451       .  S
C913        N920   1.157       .  T
C914        N919   1.158       .  T
C915        N917   1.157       .  T
C916        N918   1.157       .  T
C921        C922   1.407       .  A
C921        C926   1.417       .  A
C922        C923   1.413   1_655  A
C922        C927   1.451       .  S
C923        C924   1.417       .  A
C923        C930   1.449       .  S
C924        C925   1.407       .  A
C925        C926   1.413   1_455  A
C925        C928   1.450       .  S
C926        C929   1.450       .  S
C927        N934   1.157       .  T
C928        N933   1.157       .  T
C929        N931   1.157       .  T
C930        N932   1.157       .  T
C935        C936   1.419       .  A
C935        C940   1.422       .  A
C936        C937   1.414       .  A
C936        C941   1.452       .  S
C937        C938   1.416       .  A
C937        C944   1.452       .  S
C938        C939   1.416       .  A
C939        C940   1.409       .  A
C939        C942   1.454       .  S
C940        C943   1.454       .  S
C941        N948   1.157       .  T
C942        N947   1.158       .  T
C943        N945   1.158       .  T
C944        N946   1.158       .  T
C949        C950   1.415       .  A
C949        C954   1.417       .  A
C950        C951   1.413       .  A
C950        C955   1.453       .  S
C951        C952   1.421       .  A
C951        C958   1.452       .  S
C952       C1486   1.502       .  S
C952        C953   1.419       .  A
C953        C954   1.414       .  A
C953       C2268   1.452       .  S
C954        C957   1.452       .  S
C955        N962   1.157       .  T
C956       C2265   1.452   1_545  S
C956        N961   1.157       .  T
C957        N959   1.157       .  T
C958        N960   1.158       .  T
C963        C964   1.413       .  A
C963        C968   1.413       .  A
C964        C965   1.409       .  A
C964        C969   1.453       .  S
C965        C966   1.412       .  A
C965        C972   1.451       .  S
C966        C967   1.412       .  A
C967        C968   1.416       .  A
C967        C970   1.449       .  S
C968        C971   1.450       .  S
C969        N976   1.157       .  T
C970        N975   1.157       .  T
C971        N973   1.157       .  T
C972        N974   1.157       .  T
C977       C1436   1.475   1_545  S
C977        C978   1.414       .  A
C977        C982   1.413       .  A
C978        C979   1.407       .  A
C978        C983   1.452       .  S
C979        C980   1.409       .  A
C979        C986   1.451       .  S
C980        C981   1.407       .  A
C981        C982   1.405       .  A
C981        C984   1.448       .  S
C982        C985   1.452       .  S
C983        N990   1.157       .  T
C984        N989   1.156       .  T
C985       N2299   1.157   1_545  T
C986        N988   1.157       .  T
N987       C2297   1.157       .  T
C991        C992   1.408   1_655  A
C991        C996   1.416       .  A
C992        C993   1.412       .  A
C992        C997   1.451       .  S
C993        C994   1.419       .  A
C993       C1000   1.452       .  S
C994        C995   1.411       .  A
C995        C996   1.412   1_455  A
C995        C998   1.451   1_455  S
C996        C999   1.452       .  S
C997       N1004   1.157       .  T
C998       N1003   1.157       .  T
C999       N1001   1.157       .  T
C1000      N1002   1.157       .  T
C1005      C1427   1.487   1_545  S
C1005      C1006   1.414       .  A
C1005      C1010   1.413       .  A
C1006      C1007   1.416       .  A
C1006      C1011   1.449   1_655  S
C1007      C1008   1.410       .  A
C1007      C1014   1.449       .  S
C1008      C1009   1.412       .  A
C1009      C1010   1.410       .  A
C1009      C1012   1.452       .  S
C1010      C1013   1.451       .  S
C1011      N1018   1.157       .  T
C1012      N1017   1.157       .  T
C1013      N1015   1.157       .  T
C1014      N1016   1.157   1_655  T
C1019      C1020   1.412       .  A
C1019      C1024   1.409       .  A
C1020      C1021   1.405       .  A
C1020      C1025   1.454       .  S
C1021      C1022   1.413       .  A
C1021      C1028   1.452       .  S
C1022      C1023   1.414       .  A
C1023      C1024   1.408       .  A
C1023      C1026   1.452       .  S
C1024      C1027   1.451       .  S
C1025      N1032   1.158       .  T
C1026      N1031   1.157   1_655  T
C1027      N1029   1.157   1_655  T
C1028      N1030   1.157       .  T
C1033      C1034   1.413       .  A
C1033      C1038   1.414       .  A
C1034      C1035   1.408       .  A
C1034      C1039   1.453       .  S
C1035      C1036   1.419       .  A
C1035      C1042   1.453       .  S
C1036      C1037   1.416       .  A
C1037      C1038   1.413       .  A
C1037      C1040   1.451       .  S
C1038      C1041   1.452       .  S
C1039      N1046   1.158       .  T
C1040      N1045   1.157       .  T
C1041      N1043   1.157       .  T
C1042      N1044   1.158       .  T
C1047      C1048   1.418       .  A
C1047      C1052   1.416       .  A
C1048      C1049   1.414       .  A
C1048      C1053   1.452       .  S
C1049      C1050   1.418       .  A
C1049      C1056   1.452       .  S
C1050      C1051   1.422       .  A
C1051      C1052   1.416       .  A
C1051      C1054   1.452       .  S
C1052      C1055   1.452       .  S
C1053      N1060   1.158       .  T
C1054      N1059   1.157       .  T
C1055      N1057   1.158       .  T
C1056      N1058   1.157       .  T
C1061      C1062   1.420       .  A
C1061      C1066   1.415       .  A
C1062      C2375   1.415       .  A
C1062      C2379   1.452       .  S
C1063      C2374   1.415   1_545  A
C1063      C2376   1.414       .  A
C1063      C1070   1.452       .  S
C1064      C1395   1.500       .  S
C1064      C1065   1.420       .  A
C1064      C2375   1.414       .  A
C1065      C1066   1.415       .  A
C1065      C1068   1.452       .  S
C1066      C1069   1.452       .  S
C1067      C2374   1.452   1_545  S
C1067      N1074   1.158       .  T
C1068      N1073   1.158       .  T
C1069      N1071   1.157       .  T
C1070      N1072   1.157       .  T
C1075      C1076   1.409       .  A
C1075      C1080   1.412       .  A
C1076      C1077   1.408       .  A
C1076      C1081   1.454       .  S
C1077      C1078   1.420       .  A
C1077      C1084   1.452       .  S
C1078      C1079   1.417       .  A
C1079      C1080   1.414       .  A
C1079      C2394   1.451   1_545  S
C1080      C2395   1.451   1_545  S
C1081      N1088   1.157       .  T
C1082      C2391   1.451       .  S
C1082      N1087   1.157       .  T
C1083      C2392   1.451       .  S
C1083      N1085   1.157       .  T
C1084      N1086   1.157       .  T
C1089      C1090   1.419       .  A
C1089      C1094   1.414       .  A
C1090      C1091   1.416       .  A
C1090      C1095   1.452       .  S
C1091      C1092   1.414       .  A
C1091      C1098   1.451       .  S
C1092      C1093   1.421       .  A
C1093      C1094   1.414       .  A
C1093      C1096   1.453       .  S
C1094      C1097   1.452       .  S
C1095      N1102   1.157       .  T
C1096      N2413   1.158       .  T
C1097      N1099   1.157       .  T
C1098      N1100   1.157       .  T
N1101      C2408   1.158   1_545  T
C1103      C1104   1.404       .  A
C1103      C1108   1.404       .  A
C1104      C1105   1.408       .  A
C1104      C1109   1.451       .  S
C1105      C1106   1.421       .  A
C1105      C1112   1.451       .  S
C1106      C1107   1.422       .  A
C1107      C1108   1.404       .  A
C1107      C1110   1.452       .  S
C1108      C1111   1.454       .  S
C1109      N1116   1.157       .  T
C1110      N1115   1.158       .  T
C1111      N1113   1.157       .  T
C1112      N1114   1.157       .  T
C1117      C1118   1.419       .  A
C1117      C1122   1.411       .  A
C1118      C1119   1.415       .  A
C1118      C1123   1.450       .  S
C1119      C1120   1.410       .  A
C1119      C1126   1.451       .  S
C1120      C1121   1.419       .  A
C1121      C1122   1.415       .  A
C1121      C1124   1.450       .  S
C1122      C1125   1.451       .  S
C1123      N1130   1.157       .  T
C1124      N1129   1.157       .  T
C1125      N1127   1.157       .  T
C1126      N1128   1.157       .  T
C1131      C1132   1.417       .  A
C1131      C1136   1.411       .  A
C1132      C1133   1.414       .  A
C1132      C1137   1.454       .  S
C1133      C1134   1.419       .  A
C1133      C1140   1.452       .  S
C1134      C1135   1.424       .  A
C1135      C1136   1.418       .  A
C1135      C1138   1.451       .  S
C1136      C1139   1.451       .  S
C1137      N1144   1.157       .  T
C1138      N1143   1.158       .  T
C1139      N1141   1.157       .  T
C1140      N1142   1.158       .  T
C1145      C1146   1.405       .  A
C1145      C1150   1.407       .  A
C1146      C1147   1.405       .  A
C1146      C1151   1.454       .  S
C1147      C1148   1.423       .  A
C1147      C1154   1.452       .  S
C1148      C1149   1.423       .  A
C1149      C1150   1.408       .  A
C1149      C1152   1.452       .  S
C1150      C1153   1.452       .  S
C1151      N1158   1.157       .  T
C1152      N1157   1.158       .  T
C1153      N1155   1.157       .  T
C1154      N1156   1.157       .  T
C1159      C1160   1.408       .  A
C1159      C1164   1.412       .  A
C1160      C1161   1.409       .  A
C1160      C1165   1.453       .  S
C1161      C1162   1.419       .  A
C1161      C1168   1.451       .  S
C1162      C1163   1.415       .  A
C1163      C1164   1.414       .  A
C1163      C1166   1.450       .  S
C1164      C1167   1.451       .  S
C1165      N1172   1.157       .  T
C1166      N1171   1.157       .  T
C1167      N1169   1.157       .  T
C1168      N1170   1.157       .  T
C1173      C1174   1.415       .  A
C1173      C1178   1.407       .  A
C1174      C1175   1.413       .  A
C1174      C1179   1.450       .  S
C1175      C1176   1.409       .  A
C1175      C1182   1.450       .  S
C1176      C1177   1.418       .  A
C1177      C1178   1.412       .  A
C1177      C1180   1.451       .  S
C1178      C1181   1.451       .  S
C1179      N1186   1.157       .  T
C1180      N1185   1.157       .  T
C1181      N1183   1.157       .  T
C1182      N1184   1.157       .  T
C1187      C1188   1.422       .  A
C1187      C1192   1.420   1_655  A
C1188      C1189   1.414       .  A
C1188      C1193   1.453       .  S
C1189      C1190   1.418   1_655  A
C1189      C1196   1.453       .  S
C1190      C1191   1.421       .  A
C1191      C1192   1.416       .  A
C1191      C1194   1.452       .  S
C1192      C1195   1.453       .  S
C1193      N1200   1.158       .  T
C1194      N1199   1.158       .  T
C1195      N1197   1.157       .  T
C1196      N1198   1.157       .  T
C1201      C1202   1.414       .  A
C1201      C1206   1.411       .  A
C1202      C1203   1.407       .  A
C1202      C1207   1.451       .  S
C1203      C1204   1.409       .  A
C1203      C1210   1.451       .  S
C1204      C1205   1.415       .  A
C1205      C1206   1.414       .  A
C1205      C1208   1.451       .  S
C1206      C1209   1.450       .  S
C1207      N1214   1.157       .  T
C1208      N1213   1.157       .  T
C1209      N1211   1.157       .  T
C1210      N1212   1.157       .  T
C1215      C1216   1.421       .  A
C1215      C1220   1.409   1_556  A
C1216      C1217   1.416       .  A
C1216      C1221   1.452       .  S
C1217      C1218   1.411   1_556  A
C1217      C1224   1.451       .  S
C1218      C1219   1.417       .  A
C1219      C1220   1.412       .  A
C1219      C1222   1.445       .  S
C1220      C1223   1.452       .  S
C1221      N1228   1.157       .  T
C1222      N1227   1.155       .  T
C1223      N1225   1.157       .  T
C1224      N1226   1.157       .  T
C1229      C1330   1.505   1_545  S
C1229      C1230   1.416       .  A
C1229      C1234   1.422       .  A
C1230      C1231   1.419       .  A
C1230      C1235   1.450       .  S
C1231      C1232   1.419       .  A
C1231      C1238   1.451       .  S
C1232      C1233   1.415       .  A
C1233      C1234   1.413       .  A
C1233      C1236   1.453       .  S
C1234      C2549   1.453   1_545  S
C1235      N1242   1.157       .  T
C1236      N1241   1.157       .  T
C1237      C2546   1.453       .  S
C1237      N1239   1.158       .  T
C1238      N1240   1.157       .  T
C1243      C1244   1.413       .  A
C1243      C1248   1.411       .  A
C1244      C1245   1.408       .  A
C1244      C1249   1.452       .  S
C1245      C1246   1.412       .  A
C1245      C1252   1.451       .  S
C1246      C1247   1.413       .  A
C1247      C1248   1.403       .  A
C1247      C1250   1.452       .  S
C1248      C1251   1.453       .  S
C1249      N1256   1.157       .  T
C1250      N1255   1.157       .  T
C1251      N1253   1.157       .  T
C1252      N1254   1.157       .  T
C1257      C1258   1.418   1_554  A
C1257      C1262   1.416   1_655  A
C1258      C1259   1.412       .  A
C1258      C1263   1.453       .  S
C1259      C2572   1.417   1_655  A
C1259      C2578   1.453       .  S
C1260      C2571   1.417   1_455  A
C1260      C2573   1.420   1_545  A
C1261      C1262   1.412   1_556  A
C1261      C2572   1.420       .  A
C1261      C1264   1.453   1_556  S
C1262      C1265   1.453       .  S
C1263      N1270   1.158       .  T
C1264      N2581   1.158       .  T
C1265      N1267   1.158       .  T
C1266      C2571   1.453       .  S
C1266      N1268   1.157       .  T
N1269      C2576   1.158       .  T
C1271      C1272   1.413       .  A
C1271      C1276   1.412       .  A
C1272      C1273   1.416       .  A
C1272      C1277   1.450       .  S
C1273      C1274   1.412       .  A
C1273      C1280   1.450       .  S
C1274      C1275   1.410       .  A
C1275      C1276   1.407       .  A
C1275      C1278   1.451       .  S
C1276      C1279   1.452       .  S
C1277      N1284   1.157   1_655  T
C1278      N1283   1.157       .  T
C1279      N1281   1.157       .  T
C1280      N1282   1.157   1_655  T
C1285      C1319   1.474   1_545  S
C1285      C1286   1.414       .  A
C1285      C1290   1.412       .  A
C1286      C1287   1.410       .  A
C1286      C1291   1.451       .  S
C1287      C1288   1.410       .  A
C1287      C1294   1.450       .  S
C1288      C1289   1.409       .  A
C1289      C1290   1.401       .  A
C1289      C1292   1.453       .  S
C1290      C1293   1.451       .  S
C1291      N1298   1.157   1_655  T
C1292      N1297   1.157       .  T
C1293      N1295   1.157       .  T
C1294      N1296   1.157   1_655  T
C1299      C1300   1.407       .  A
C1299      C1304   1.413       .  A
C1300      C1301   1.409       .  A
C1300      C1305   1.451       .  S
C1301      C1302   1.416       .  A
C1301      C1308   1.451       .  S
C1302      C1303   1.410       .  A
C1303      C1304   1.411       .  A
C1303      C1306   1.450       .  S
C1304      C1307   1.450       .  S
C1305      N1312   1.157       .  T
C1306      N2623   1.157       .  T
C1307      N2621   1.157       .  T
C1308      N1310   1.157       .  T
N1309      C2619   1.157   1_545  T
N1311      C2618   1.157   1_545  T
In1313     O1315   2.269       .  S
In1313     O1316   2.235       .  S
In1313     O1324   2.233       .  S
In1313     O1318   2.243       .  S
In1313     O1320   2.268       .  S
In1313     O1321   2.239       .  S
In1313     O1322   2.222       .  S
In1313     O1325   2.210       .  S
C1314      O1320   1.263       .  A
C1314      O1322   1.257       .  A
C1314      C2611   1.477       .  S
O1315      C1323   1.260       .  A
O1316      C1323   1.256       .  A
C1317      O1324   1.259       .  A
C1317      O1318   1.262       .  A
C1317      C2569   1.494       .  S
C1319      O1321   1.264       .  A
C1319      O1325   1.260       .  A
C1323      C2583   1.482       .  S
In1326     O1328   2.267       .  S
In1326     O1329   2.268       .  S
In1326     O1337   2.298       .  S
In1326     O1331   2.230       .  S
In1326     O1333   2.248       .  S
In1326     O1334   2.276       .  S
In1326     O1335   2.203       .  S
In1326     O1338   2.219       .  S
C1327      O1333   1.264       .  A
C1327      O1335   1.261       .  A
C1327      C2558   1.478       .  S
O1328      C1336   1.258       .  A
O1329      C1336   1.257       .  A
C1330      O1337   1.264       .  A
C1330      O1331   1.254       .  A
C1332      O1334   1.264       .  A
C1332      O1338   1.256       .  A
C1332      C2614   1.481       .  S
C1336      C2530   1.495       .  S
In1339     O1341   2.261       .  S
In1339     O1342   2.245       .  S
In1339     O1350   2.260       .  S
In1339     O1344   2.244       .  S
In1339     O1346   2.269       .  S
In1339     O1347   2.253       .  S
In1339     O1348   2.221       .  S
In1339     O1351   2.202       .  S
C1340      O1346   1.265       .  A
C1340      O1348   1.260       .  A
C1340      C2513   1.483       .  S
O1341      C1349   1.261       .  A
O1342      C1349   1.256       .  A
C1343      O1350   1.259       .  A
C1343      O1344   1.256       .  A
C1343      C2499   1.509       .  S
C1345      O1347   1.262       .  A
C1345      O1351   1.257       .  A
C1345      C2600   1.470       .  S
C1349      C2586   1.480       .  S
In1352     O1354   2.262       .  S
In1352     O1355   2.254       .  S
In1352     O1363   2.237       .  S
In1352     O1357   2.268       .  S
In1352     O1359   2.257       .  S
In1352     O1360   2.242       .  S
In1352     O1361   2.239       .  S
In1352     O1364   2.212       .  S
C1353      O1359   1.262       .  A
C1353      O1361   1.259       .  A
C1353      C2516   1.480       .  S
O1354      C1362   1.264       .  A
O1355      C1362   1.259       .  A
C1356      O1363   1.257       .  A
C1356      O1357   1.264       .  A
C1356      C2488   1.486       .  S
C1358      O1360   1.263       .  A
C1358      O1364   1.258       .  A
C1358      C2555   1.473       .  S
C1362      C2544   1.503       .  S
In1365     O1367   2.219       .  S
In1365     O1368   2.235       .  S
In1365     O1376   2.266       .  S
In1365     O1370   2.254       .  S
In1365     O1372   2.261       .  S
In1365     O1373   2.228       .  S
In1365     O1374   2.223       .  S
In1365     O1377   2.282       .  S
C1366      O1372   1.264       .  A
C1366      O1374   1.258       .  A
C1366      C2471   1.478       .  S
O1367      C1375   1.257       .  A
O1368      C1375   1.260       .  A
C1369      O1376   1.261       .  A
C1369      O1370   1.258       .  A
C1369      C2429   1.495       .  S
C1371      O1373   1.258       .  A
C1371      O1377   1.266       .  A
C1371      C2443   1.497       .  S
C1375      C2460   1.493       .  S
In1378     O1380   2.204       .  S
In1378     O1381   2.242       .  S
In1378     O1389   2.247       .  S
In1378     O1383   2.268       .  S
In1378     O1385   2.271       .  S
In1378     O1386   2.243       .  S
In1378     O1387   2.232       .  S
In1378     O1390   2.281       .  S
C1379      O1385   1.263       .  A
C1379      O1387   1.257       .  A
C1379      C2474   1.491       .  S
O1380      C1388   1.260       .  A
O1381      C1388   1.263       .  A
C1382      O1389   1.257       .  A
C1382      O1383   1.261       .  A
C1382      C2485   1.483       .  S
C1384      O1386   1.253       .  A
C1384      O1390   1.262       .  A
C1384      C2401   1.498       .  S
C1388      C2415   1.463       .  S
In1391     O1402   2.247       .  S
In1391     O1396   2.252       .  S
In1391     O1398   2.266       .  S
In1391     O1399   2.244       .  S
In1391     O1400   2.220       .  S
In1391     O1403   2.264       .  S
C1392      O1398   1.264       .  A
C1392      O1400   1.257       .  A
C1392      C2387   1.480       .  S
O1393      C1401   1.259       .  A
O1394      C1401   1.262       .  A
C1395      O1402   1.261       .  A
C1395      O1396   1.263       .  A
C1397      O1399   1.259       .  A
C1397      O1403   1.265       .  A
C1397      C2446   1.508       .  S
C1401      C2457   1.468       .  S
In1404     O1406   2.208       .  S
In1404     O1407   2.241       .  S
In1404     O1415   2.252       .  S
In1404     O1409   2.240       .  S
In1404     O1411   2.259       .  S
In1404     O1412   2.228       .  S
In1404     O1413   2.221       .  S
C1405      O1411   1.265       .  A
C1405      O1413   1.259       .  A
C1405      C2390   1.493       .  S
O1406      C1414   1.257       .  A
O1407      C1414   1.263       .  A
C1408      O1415   1.262       .  A
C1408      O1409   1.260       .  A
C1408      C2362   1.506       .  S
C1410      O1416   1.266       .  A
C1410      C2404   1.499       .  S
C1414      C2418   1.487       .  S
In1417     O1419   2.257       .  S
In1417     O1420   2.244       .  S
In1417     O1428   2.257       .  S
In1417     O1422   2.244       .  S
In1417     O1424   2.249       .  S
In1417     O1425   2.249       .  S
In1417     O1426   2.217       .  S
In1417     O1429   2.207       .  S
C1418      O1424   1.267       .  A
C1418      O1426   1.261       .  A
C1418      C2345   1.487       .  S
O1419      C1427   1.264       .  A
O1420      C1427   1.260       .  A
C1421      O1428   1.259       .  A
C1421      O1422   1.258       .  A
C1421      C2303   1.483       .  S
C1423      O1425   1.263       .  A
C1423      O1429   1.256       .  A
C1423      C2331   1.471       .  S
In1430     O1432   2.250       .  S
In1430     O1433   2.246       .  S
In1430     O1441   2.232       .  S
In1430     O1435   2.257       .  S
In1430     O1437   2.252       .  S
In1430     O1438   2.224       .  S
In1430     O1439   2.219       .  S
In1430     O1442   2.225       .  S
C1431      O1437   1.265       .  A
C1431      O1439   1.259       .  A
C1431      C2348   1.493       .  S
O1432      C1440   1.262       .  A
O1433      C1440   1.258       .  A
C1434      O1441   1.258       .  A
C1434      O1435   1.263       .  A
C1434      C2261   1.496       .  S
C1436      O1438   1.262       .  A
C1436      O1442   1.259       .  A
C1440      C2275   1.483       .  S
In1443     O1445   2.267       .  S
In1443     O1446   2.246       .  S
In1443     O1454   2.240       .  S
In1443     O1448   2.267       .  S
In1443     O1450   2.257       .  S
In1443     O1451   2.230       .  S
In1443     O1452   2.217       .  S
In1443     O1455   2.222       .  S
C1444      O1450   1.265       .  A
C1444      O1452   1.259       .  A
C1444      C2247   1.500       .  S
O1445      C1453   1.262       .  A
O1446      C1453   1.257       .  A
C1447      O1454   1.257       .  A
C1447      O1448   1.262       .  A
C1447      C2233   1.483       .  S
C1449      O1451   1.263       .  A
C1449      O1455   1.260       .  A
C1449      C2334   1.475       .  S
C1453      C2320   1.483       .  S
In1456     O1458   2.247       .  S
In1456     O1459   2.252       .  S
In1456     O1467   2.256       .  S
In1456     O1461   2.248       .  S
In1456     O1463   2.246       .  S
In1456     O1464   2.255       .  S
In1456     O1465   2.221       .  S
In1456     O1468   2.218       .  S
C1457      O1463   1.263       .  A
C1457      O1465   1.258       .  A
C1457      C2292   1.466       .  S
O1458      C1466   1.259       .  A
O1459      C1466   1.261       .  A
C1460      O1467   1.262       .  A
C1460      O1461   1.259       .  A
C1460      C2278   1.485       .  S
C1462      O1464   1.266       .  A
C1462      O1468   1.259       .  A
C1462      C2250   1.494       .  S
C1466      C2359   1.505       .  S
In1469     O1471   2.210       .  S
In1469     O1472   2.233       .  S
In1469     O1480   2.247       .  S
In1469     O1474   2.256       .  S
In1469     O1476   2.281       .  S
In1469     O1477   2.230       .  S
In1469     O1478   2.219       .  S
In1469     O1481   2.290       .  S
C1470      O1476   1.265       .  A
C1470      O1478   1.254       .  A
C1470      C2219   1.496       .  S
O1471      C1479   1.260       .  A
O1472      C1479   1.264       .  A
C1473      O1480   1.261       .  A
C1473      O1474   1.264       .  A
C1473      C2180   1.508       .  S
C1475      C2194   1.491       .  S
C1479      C2208   1.464       .  S
In1482     O1493   2.239       .  S
In1482     O1487   2.250       .  S
In1482     O1489   2.272       .  S
In1482     O1490   2.249       .  S
In1482     O1491   2.212       .  S
In1482     O1494   2.247       .  S
C1483      O1489   1.264       .  A
C1483      O1491   1.257       .  A
C1483      C2222   1.491       .  S
O1484      C1492   1.260       .  A
O1485      C1492   1.263   1_545  A
C1486      O1493   1.259       .  A
C1486      O1487   1.262       .  A
C1488      O1490   1.258       .  A
C1488      O1494   1.261       .  A
C1488      C2149   1.499       .  S
C1492      C2163   1.466       .  S
In1495     O1497   2.204       .  S
In1495     O1498   2.241       .  S
In1495     O1506   2.249       .  S
In1495     O1500   2.252       .  S
In1495     O1502   2.265       .  S
In1495     O1503   2.247       .  S
In1495     O1504   2.231       .  S
In1495     O1507   2.255       .  S
C1496      O1502   1.264       .  A
C1496      O1504   1.258       .  A
C1496      C2135   1.486       .  S
O1497      C1505   1.257       .  A
O1498      C1505   1.263       .  A
C1499      O1506   1.262       .  A
C1499      O1500   1.262       .  A
C1499      C2121   1.502       .  S
C1501      O1503   1.259       .  A
C1501      O1507   1.265       .  A
C1501      C2191   1.495       .  S
C1505      C2205   1.484       .  S
In1508     O1510   2.222       .  S
In1508     O1511   2.267       .  S
In1508     O1519   2.266       .  S
In1508     O1513   2.226       .  S
In1508     O1515   2.232       .  S
In1508     O1516   2.255       .  S
In1508     O1517   2.210       .  S
In1508     O1520   2.239       .  S
C1509      O1515   1.263       .  A
C1509      O1517   1.258       .  A
C1509      C2166   1.478       .  S
O1510      C1518   1.258       .  A
O1511      C1518   1.266       .  A
C1512      O1519   1.265       .  A
C1512      O1513   1.258       .  A
C1512      C2152   1.498       .  S
C1514      O1516   1.264       .  A
C1514      O1520   1.259       .  A
C1514      C2527   1.494       .  S
C1518      C2138   1.494       .  S
In1521     O1523   2.205       .  S
In1521     O1524   2.241       .  S
In1521     O1532   2.255       .  S
In1521     O1526   2.237       .  S
In1521     O1528   2.259       .  S
In1521     O1529   2.217       .  S
In1521     O1530   2.215       .  S
In1521     O1533   2.266       .  S
C1522      O1528   1.266       .  A
C1522      O1530   1.258       .  A
C1522      C2107   1.474       .  S
O1523      C1531   1.257       .  A
O1524      C1531   1.261       .  A
C1525      O1532   1.262       .  A
C1525      O1526   1.258       .  A
C1525      C2306   1.488       .  S
C1527      O1529   1.257       .  A
C1527      O1533   1.265       .  A
C1527      C2082   1.482       .  S
C1531      C2093   1.463       .  S
In1534     O1536   2.219       .  S
In1534     O1537   2.228       .  S
In1534     O1545   2.246       .  S
In1534     O1539   2.244       .  S
In1534     O1541   2.261       .  S
In1534     O1542   2.225       .  S
In1534     O1543   2.222       .  S
In1534     O1546   2.275       .  S
C1535      O1541   1.264       .  A
C1535      O1543   1.257       .  A
C1535      C2110   1.489       .  S
O1536      C1544   1.260       .  A
O1537      C1544   1.262       .  A
C1538      O1545   1.261       .  A
C1538      O1539   1.261       .  A
C1538      C2040   1.493       .  S
C1540      O1542   1.256       .  A
C1540      O1546   1.264       .  A
C1540      C2051   1.487       .  S
C1544      C2065   1.470       .  S
In1547     O1558   2.230       .  S
In1547     O1552   2.242       .  S
In1547     O1554   2.253       .  S
In1547     O1555   2.245       .  S
In1547     O1556   2.227       .  S
In1547     O1559   2.242       .  S
C1548      O1554   1.262       .  A
C1548      O1556   1.258       .  A
C1548      C2023   1.485       .  S
O1549      C1557   1.259       .  A
O1550      C1557   1.264   1_545  A
C1551      O1558   1.260       .  A
C1551      O1552   1.262       .  A
C1551      C2572   1.497       .  S
C1553      O1555   1.259       .  A
C1553      O1559   1.262       .  A
C1553      C2079   1.489       .  S
C1557      C2096   1.484       .  S
In1560     O1562   2.209       .  S
In1560     O1563   2.237       .  S
In1560     O1571   2.241       .  S
In1560     O1565   2.254       .  S
In1560     O1567   2.247       .  S
In1560     O1569   2.223       .  S
C1561      O1567   1.265       .  A
C1561      O1569   1.260       .  A
C1561      C2026   1.480       .  S
O1562      C1570   1.258       .  A
O1563      C1570   1.262       .  A
C1564      O1571   1.260       .  A
C1564      O1565   1.261       .  A
C1564      C2009   1.494       .  S
C1566      O1568   1.259       .  A
C1566      O1572   1.264       .  A
C1566      C2054   1.489       .  S
C1570      C2068   1.477       .  S
In1573     O1575   2.269       .  S
In1573     O1576   2.250       .  S
In1573     O1584   2.255       .  S
In1573     O1578   2.254       .  S
In1573     O1580   2.272       .  S
In1573     O1581   2.232       .  S
In1573     O1582   2.211       .  S
In1573     O1585   2.226       .  S
C1574      O1580   1.265       .  A
C1574      O1582   1.257       .  A
C1574      C1995   1.490       .  S
O1575      C1583   1.265       .  A
O1576      C1583   1.260       .  A
C1577      O1584   1.261       .  A
C1577      O1578   1.261       .  A
C1577      C2124   1.502       .  S
C1579      O1581   1.263       .  A
C1579      O1585   1.259       .  A
C1579      C1981   1.471       .  S
C1583      C1970   1.508       .  S
In1586     O1588   2.267       .  S
In1586     O1589   2.248       .  S
In1586     O1597   2.248       .  S
In1586     O1591   2.254       .  S
In1586     O1593   2.268       .  S
In1586     O1594   2.234       .  S
In1586     O1595   2.208       .  S
In1586     O1598   2.219       .  S
C1587      O1593   1.266       .  A
C1587      O1595   1.258       .  A
C1587      C1998   1.498       .  S
O1588      C1596   1.263       .  A
O1589      C1596   1.258       .  A
C1590      O1597   1.259       .  A
C1590      O1591   1.260       .  A
C1590      C2012   1.492       .  S
C1592      O1594   1.264       .  A
C1592      O1598   1.260       .  A
C1592      C1956   1.480       .  S
C1596      C1942   1.485       .  S
In1599     O1601   2.263       .  S
In1599     O1602   2.254       .  S
In1599     O1610   2.275       .  S
In1599     O1604   2.250       .  S
In1599     O1606   2.247       .  S
In1599     O1607   2.261       .  S
In1599     O1608   2.221       .  S
In1599     O1611   2.226       .  S
C1600      O1606   1.261       .  A
C1600      O1608   1.256       .  A
C1600      C1984   1.486       .  S
O1601      C1609   1.262       .  A
O1602      C1609   1.260       .  A
C1603      O1610   1.264       .  A
C1603      O1604   1.259       .  A
C1605      O1607   1.263       .  A
C1605      O1611   1.258       .  A
C1605      C1928   1.479       .  S
C1609      C2432   1.495       .  S
In1612     O1614   2.267       .  S
In1612     O1615   2.250       .  S
In1612     O1623   2.250       .  S
In1612     O1617   2.267       .  S
In1612     O1619   2.260       .  S
In1612     O1620   2.240       .  S
In1612     O1621   2.221       .  S
In1612     O1624   2.215       .  S
C1613      O1619   1.266       .  A
C1613      O1621   1.260       .  A
C1613      C1925   1.488       .  S
O1614      C1622   1.263       .  A
O1615      C1622   1.258       .  A
C1616      O1623   1.259       .  A
C1616      O1617   1.262       .  A
C1616      C1914   1.499       .  S
C1618      O1620   1.263       .  A
C1618      O1624   1.258       .  A
C1618      C1953   1.480       .  S
C1622      C1939   1.489       .  S
In1625     O1627   2.273       .  S
In1625     O1628   2.242       .  S
In1625     O1636   2.251       .  S
In1625     O1630   2.262       .  S
In1625     O1632   2.269       .  S
In1625     O1633   2.233       .  S
In1625     O1634   2.211       .  S
In1625     O1637   2.214       .  S
C1626      O1632   1.266       .  A
C1626      O1634   1.257       .  A
C1626      C1897   1.492       .  S
O1627      C1635   1.264       .  A
O1628      C1635   1.257       .  A
C1629      O1636   1.259       .  A
C1629      O1630   1.261       .  A
C1629      C2177   1.510       .  S
C1631      O1633   1.264       .  A
C1631      O1637   1.261       .  A
C1631      C1883   1.478       .  S
C1635      C1869   1.503       .  S
In1638     O1640   2.252       .  S
In1638     O1641   2.263       .  S
In1638     O1649   2.253       .  S
In1638     O1643   2.247       .  S
In1638     O1645   2.258       .  S
In1638     O1646   2.237       .  S
In1638     O1647   2.222       .  S
In1638     O1650   2.228       .  S
C1639      O1645   1.263       .  A
C1639      O1647   1.259       .  A
C1639      C1900   1.496       .  S
O1640      C1648   1.260       .  A
O1641      C1648   1.259       .  A
C1642      O1649   1.260       .  A
C1642      O1643   1.258       .  A
C1642      C2037   1.494       .  S
C1644      O1646   1.263       .  A
C1644      O1650   1.260       .  A
C1644      C1855   1.480       .  S
C1648      C1844   1.489       .  S
In1651     O1653   2.278       .  S
In1651     O1654   2.232       .  S
In1651     O1662   2.246       .  S
In1651     O1656   2.258       .  S
In1651     O1658   2.261       .  S
In1651     O1659   2.229       .  S
In1651     O1660   2.229       .  S
In1651     O1663   2.227       .  S
C1652      O1658   1.262       .  A
C1652      O1660   1.258       .  A
C1652      C1827   1.477       .  S
O1653      C1661   1.266       .  A
O1654      C1661   1.256       .  A
C1655      O1662   1.260       .  A
C1655      O1656   1.263       .  A
C1655      C2373   1.500       .  S
C1657      O1659   1.260       .  A
C1657      O1663   1.258       .  A
C1661      C1872   1.505       .  S
In1664     O1667   2.252       .  S
In1664     O1675   2.252       .  S
In1664     O1669   2.260       .  S
In1664     O1671   2.260       .  S
In1664     O1672   2.244       .  S
In1664     O1673   2.225       .  S
In1664     O1676   2.215       .  S
C1665      O1671   1.265       .  A
C1665      O1673   1.260       .  A
C1665      C1830   1.483       .  S
O1666      C1674   1.261       .  A
C1668      O1675   1.259       .  A
C1668      O1669   1.260       .  A
C1668      C1813   1.494       .  S
C1670      O1672   1.263       .  A
C1670      O1676   1.258       .  A
C1670      C1858   1.492       .  S
C1674      C1841   1.485       .  S
In1677     O1679   2.228       .  S
In1677     O1680   2.259       .  S
In1677     O1684   2.244       .  S
In1677     O1685   2.254       .  S
In1677     O1686   2.217       .  S
In1677     O1689   2.240       .  S
C1678      O1684   1.263       .  A
C1678      O1686   1.258       .  A
C1678      C1785   1.471       .  S
O1679      C1687   1.259       .  A
O1680      C1687   1.264       .  A
C1681      O1688   1.259       .  A
C1681      O1682   1.258   1_565  A
C1681      C1771   1.487       .  S
C1683      O1685   1.261       .  A
C1683      O1689   1.260       .  A
C1683      C2502   1.507       .  S
C1687      C1802   1.484       .  S
In1690     O1692   2.226       .  S
In1690     O1693   2.259       .  S
In1690     O1701   2.283       .  S
In1690     O1695   2.235       .  S
In1690     O1697   2.230       .  S
In1690     O1698   2.263       .  S
In1690     O1702   2.255       .  S
C1691      O1699   1.258       .  A
C1691      C1760   1.493       .  S
O1692      C1700   1.259       .  A
O1693      C1700   1.264       .  A
C1694      O1701   1.265       .  A
C1694      O1695   1.256       .  A
C1694      C1743   1.505       .  S
C1696      O1698   1.261       .  A
C1696      O1702   1.259       .  A
C1700      C1799   1.477       .  S
In1703     O1705   2.217       .  S
In1703     O1706   2.231       .  S
In1703     O1714   2.251       .  S
In1703     O1708   2.260       .  S
In1703     O1710   2.255       .  S
In1703     O1711   2.259       .  S
In1703     O1712   2.227       .  S
In1703     O1715   2.253       .  S
C1704      O1710   1.264       .  A
C1704      O1712   1.259       .  A
C1704      C1729   1.488       .  S
O1705      C1713   1.260       .  A
O1706      C1713   1.264       .  A
C1707      O1714   1.258       .  A
C1707      O1708   1.261       .  A
C1707      C2236   1.484       .  S
C1709      O1711   1.259       .  A
C1709      O1715   1.261       .  A
C1709      C1774   1.488       .  S
C1713      C1788   1.487       .  S
In1716     O1718   2.228       .  S
In1716     O1719   2.219       .  S
In1716     O1727   2.245       .  S
In1716     O1721   2.258       .  S
In1716     O1723   2.260       .  S
In1716     O1724   2.243       .  S
In1716     O1725   2.217       .  S
In1716     O1728   2.265       .  S
C1717      O1723   1.265       .  A
C1717      O1725   1.258       .  A
C1717      C1732   1.479       .  S
O1718      C1726   1.259       .  A
O1719      C1726   1.262       .  A
C1720      O1727   1.259       .  A
C1720      O1721   1.263       .  A
C1720      C1816   1.498       .  S
C1722      O1724   1.258       .  A
C1722      O1728   1.265       .  A
C1722      C1746   1.513       .  S
C1726      C1757   1.470       .  S
C1729      C1730   1.418       .  A
C1729      C1734   1.416       .  A
C1730      C1731   1.408       .  A
C1730      C1735   1.452       .  S
C1731      C1732   1.410       .  A
C1731      C1738   1.453       .  S
C1732      C1733   1.411       .  A
C1733      C1734   1.413       .  A
C1733      C1736   1.451       .  S
C1734      C1737   1.451       .  S
C1735      N1742   1.157       .  T
C1736      N1741   1.157       .  T
C1737      N1739   1.157       .  T
C1738      N1740   1.157       .  T
C1743      C1744   1.421       .  A
C1743      C1748   1.413       .  A
C1744      C1745   1.416       .  A
C1744      C1749   1.453       .  S
C1745      C1746   1.419       .  A
C1745      C1752   1.452       .  S
C1746      C1747   1.426       .  A
C1747      C1748   1.418       .  A
C1747      C1750   1.452       .  S
C1748      C1751   1.452       .  S
C1749      N1756   1.157       .  T
C1750      N1755   1.158       .  T
C1751      N1753   1.157       .  T
C1752      N1754   1.158       .  T
C1757      C1758   1.408       .  A
C1757      C1762   1.406       .  A
C1758      C1759   1.408       .  A
C1758      C1763   1.453       .  S
C1759      C1760   1.422       .  A
C1759      C1766   1.452       .  S
C1760      C1761   1.423       .  A
C1761      C1762   1.405       .  A
C1761      C1764   1.452       .  S
C1762      C1765   1.455       .  S
C1763      N1770   1.157       .  T
C1764      N1769   1.157       .  T
C1765      N1767   1.157       .  T
C1771      C1772   1.413       .  A
C1771      C1776   1.413       .  A
C1772      C1773   1.417       .  A
C1772      C1777   1.449       .  S
C1773      C1774   1.413       .  A
C1773      C1780   1.449       .  S
C1774      C1775   1.414       .  A
C1775      C1776   1.410       .  A
C1775      C1778   1.453       .  S
C1776      C1779   1.453       .  S
C1777      N1784   1.157   1_455  T
C1778      N1783   1.157       .  T
C1779      N1781   1.157       .  T
C1780      N1782   1.157   1_455  T
C1785      C1786   1.409       .  A
C1785      C1790   1.408       .  A
C1786      C1787   1.406       .  A
C1786      C1791   1.453       .  S
C1787      C1788   1.417       .  A
C1787      C1794   1.452       .  S
C1788      C1789   1.421       .  A
C1789      C1790   1.408       .  A
C1789      C1792   1.452       .  S
C1790      C1793   1.453       .  S
C1791      N1798   1.157       .  T
C1792      N1797   1.158       .  T
C1793      N1795   1.157       .  T
C1794      N1796   1.157       .  T
C1799      C1800   1.412       .  A
C1799      C1804   1.408       .  A
C1800      C1801   1.412       .  A
C1801      C1802   1.413       .  A
C1802      C1803   1.416       .  A
C1803      C1804   1.409       .  A
C1803      C1806   1.452       .  S
C1804      C1807   1.452       .  S
C1805      N1812   1.157       .  T
C1806      N1811   1.157       .  T
C1807      N1809   1.157       .  T
C1808      N1810   1.157       .  T
C1813      C1814   1.411       .  A
C1813      C1818   1.418       .  A
C1814      C1815   1.415       .  A
C1814      C1819   1.451       .  S
C1815      C1816   1.421       .  A
C1815      C1822   1.452       .  S
C1816      C1817   1.413       .  A
C1817      C1818   1.414       .  A
C1817      C1820   1.451       .  S
C1818      C1821   1.452       .  S
C1819      N1826   1.157       .  T
C1820      N1825   1.157       .  T
C1821      N1823   1.157       .  T
C1822      N1824   1.158       .  T
C1827      C1828   1.408       .  A
C1827      C1832   1.413       .  A
C1828      C1829   1.408       .  A
C1828      C1833   1.453       .  S
C1829      C1830   1.416       .  A
C1829      C1836   1.451       .  S
C1830      C1831   1.413       .  A
C1831      C1832   1.414       .  A
C1832      C1835   1.451       .  S
C1833      N1840   1.157       .  T
C1834      N1839   1.157       .  T
C1836      N1838   1.157       .  T
C1841      C1842   1.411       .  A
C1841      C1846   1.411       .  A
C1842      C1843   1.417       .  A
C1842      C1847   1.449       .  S
C1843      C1844   1.414       .  A
C1843      C1850   1.450       .  S
C1844      C1845   1.415       .  A
C1845      C1846   1.410       .  A
C1845      C1848   1.452       .  S
C1846      C1849   1.452       .  S
C1847      N1854   1.157       .  T
C1848      N1853   1.157       .  T
C1849      N1851   1.157       .  T
C1850      N1852   1.157       .  T
C1855      C1856   1.410       .  A
C1855      C1860   1.412       .  A
C1856      C1857   1.408       .  A
C1856      C1861   1.453       .  S
C1857      C1858   1.421       .  A
C1857      C1864   1.453       .  S
C1858      C1859   1.418       .  A
C1859      C1860   1.410       .  A
C1859      C1862   1.452       .  S
C1860      C1863   1.453       .  S
C1861      N1868   1.157       .  T
C1862      N1867   1.158       .  T
C1863      N1865   1.157       .  T
C1864      N1866   1.158       .  T
C1869      C1870   1.414       .  A
C1869      C1874   1.420       .  A
C1870      C1871   1.416       .  A
C1870      C1875   1.452       .  S
C1871      C1872   1.422       .  A
C1871      C1878   1.452       .  S
C1872      C1873   1.416       .  A
C1873      C1874   1.415       .  A
C1873      C1876   1.452       .  S
C1874      C1877   1.451       .  S
C1875      N1882   1.157       .  T
C1876      N1881   1.158       .  T
C1877      N1879   1.157       .  T
C1878      N1880   1.157       .  T
C1883      C1884   1.415       .  A
C1883      C1888   1.414       .  A
C1884      C1885   1.406       .  A
C1884      C1889   1.453       .  S
C1885      C1886   1.411       .  A
C1886      C1887   1.411       .  A
C1887      C1888   1.406       .  A
C1887      C1890   1.453       .  S
C1888      C1891   1.451       .  S
C1889      N1896   1.158       .  T
C1890      N1895   1.157       .  T
C1891      N1893   1.157       .  T
C1892      N1894   1.157       .  T
C1897      C1898   1.415       .  A
C1897      C1902   1.416       .  A
C1898      C1899   1.415       .  A
C1898      C1903   1.451       .  S
C1899      C1900   1.419       .  A
C1899      C1906   1.451       .  S
C1900      C1901   1.418       .  A
C1901      C1902   1.407       .  A
C1901      C1904   1.454       .  S
C1902      C1905   1.454       .  S
C1903      N1910   1.157       .  T
C1904      N1909   1.157       .  T
C1905      N1907   1.157       .  T
C1906      N1908   1.157       .  T
C1911      C1912   1.413       .  A
C1911      C1916   1.421   1_545  A
C1912      C1913   1.415   1_545  A
C1913      C1914   1.421       .  A
C1913      C1920   1.452       .  S
C1914      C1915   1.412       .  A
C1915      C1916   1.416       .  A
C1915      C1918   1.451       .  S
C1916      C1919   1.452       .  S
C1917      N1924   1.157       .  T
C1918      N1923   1.157       .  T
C1919      N1921   1.158       .  T
C1920      N1922   1.158       .  T
C1925      C1926   1.414       .  A
C1925      C1930   1.418       .  A
C1926      C1927   1.414       .  A
C1926      C1931   1.450       .  S
C1927      C1928   1.412       .  A
C1927      C1934   1.450       .  S
C1928      C1929   1.408       .  A
C1929      C1930   1.408       .  A
C1929      C1932   1.453       .  S
C1930      C1933   1.452       .  S
C1931      N1938   1.157       .  T
C1932      N1937   1.157       .  T
C1933      N1935   1.157       .  T
C1934      N1936   1.157       .  T
C1939      C1940   1.414       .  A
C1939      C1944   1.413       .  A
C1940      C1941   1.412       .  A
C1940      C1945   1.452       .  S
C1941      C1942   1.412       .  A
C1941      C1948   1.452       .  S
C1942      C1943   1.411       .  A
C1943      C1944   1.417       .  A
C1943      C1946   1.449       .  S
C1944      C1947   1.449       .  S
C1945      N1952   1.157       .  T
C1946      N1951   1.157       .  T
C1947      N1949   1.157       .  T
C1948      N1950   1.157       .  T
C1953      C1954   1.413       .  A
C1954      C1959   1.452       .  S
C1955      C1956   1.416       .  A
C1955      C1962   1.453       .  S
C1956      C1957   1.413       .  A
C1957      C1958   1.407       .  A
C1957      C1960   1.453       .  S
C1958      C1961   1.453       .  S
C1959      N1966   1.157       .  T
C1960      N1965   1.157       .  T
C1961      N1963   1.158       .  T
C1962      N1964   1.157       .  T
C1967      C1968   1.422       .  A
C1967      C1972   1.417       .  A
C1968      C1969   1.417       .  A
C1969      C1970   1.415       .  A
C1969      C1976   1.452       .  S
C1970      C1971   1.422       .  A
C1971      C1972   1.418       .  A
C1971      C1974   1.452       .  S
C1972      C1975   1.451       .  S
C1973      N1980   1.157       .  T
C1974      N1979   1.158       .  T
C1975      N1977   1.157       .  T
C1976      N1978   1.157       .  T
C1981      C1982   1.408       .  A
C1981      C1986   1.410       .  A
C1982      C1983   1.405       .  A
C1982      C1987   1.453       .  S
C1983      C1984   1.419       .  A
C1983      C1990   1.452       .  S
C1984      C1985   1.417       .  A
C1985      C1986   1.408       .  A
C1985      C1988   1.451       .  S
C1986      C1989   1.451       .  S
C1987      N1994   1.157       .  T
C1988      N1993   1.157       .  T
C1989      N1991   1.157       .  T
C1990      N1992   1.157       .  T
C1995      C1996   1.414       .  A
C1995      C2000   1.414       .  A
C1996      C1997   1.416       .  A
C1996      C2001   1.451       .  S
C1997      C1998   1.420       .  A
C1997      C2004   1.451       .  S
C1998      C1999   1.420       .  A
C1999      C2000   1.407       .  A
C1999      C2002   1.454       .  S
C2000      C2003   1.454       .  S
C2001      N2008   1.157       .  T
C2002      N2007   1.158       .  T
C2003      N2005   1.157       .  T
C2004      N2006   1.158       .  T
C2009      C2010   1.420       .  A
C2009      C2014   1.413   1_556  A
C2010      C2011   1.413       .  A
C2010      C2015   1.452       .  S
C2011      C2012   1.412   1_556  A
C2011      C2018   1.451       .  S
C2012      C2013   1.419       .  A
C2013      C2014   1.414       .  A
C2013      C2016   1.452       .  S
C2014      C2017   1.451       .  S
C2015      N2022   1.158       .  T
C2016      N2021   1.157       .  T
C2017      N2019   1.157       .  T
C2018      N2020   1.157       .  T
C2023      C2024   1.417       .  A
C2023      C2028   1.414       .  A
C2024      C2025   1.408       .  A
C2025      C2026   1.411       .  A
C2026      C2027   1.413       .  A
C2027      C2028   1.411       .  A
C2027      C2030   1.452       .  S
C2028      C2031   1.451       .  S
C2029      N2036   1.157       .  T
C2030      N2035   1.157       .  T
C2031      N2033   1.157       .  T
C2032      N2034   1.157       .  T
C2037      C2038   1.414       .  A
C2037      C2042   1.419       .  A
C2038      C2039   1.413       .  A
C2038      C2043   1.452       .  S
C2039      C2040   1.418       .  A
C2039      C2046   1.452       .  S
C2040      C2041   1.413       .  A
C2041      C2042   1.413       .  A
C2041      C2044   1.452       .  S
C2042      C2045   1.452       .  S
C2043      N2050   1.157       .  T
C2044      N2049   1.157       .  T
C2045      N2047   1.157       .  T
C2046      N2048   1.157       .  T
C2051      C2052   1.411       .  A
C2051      C2056   1.415       .  A
C2052      C2053   1.414       .  A
C2052      C2057   1.450       .  S
C2053      C2054   1.416       .  A
C2053      C2060   1.450       .  S
C2054      C2055   1.414       .  A
C2055      C2056   1.410       .  A
C2055      C2058   1.452       .  S
C2056      C2059   1.453       .  S
C2057      N2064   1.157       .  T
C2058      N2063   1.157       .  T
C2059      N2061   1.157       .  T
C2060      N2062   1.157       .  T
C2065      C2066   1.411       .  A
C2065      C2070   1.410       .  A
C2066      C2067   1.407       .  A
C2066      C2071   1.452       .  S
C2067      C2068   1.413       .  A
C2067      C2074   1.452       .  S
C2068      C2069   1.416       .  A
C2069      C2070   1.405       .  A
C2069      C2072   1.453       .  S
C2070      C2073   1.453       .  S
C2071      N2078   1.157       .  T
C2072      N2077   1.158       .  T
C2073      N2075   1.157       .  T
C2074      N2076   1.157       .  T
C2079      C2080   1.415       .  A
C2079      C2084   1.417       .  A
C2080      C2081   1.407       .  A
C2080      C2085   1.452       .  S
C2081      C2082   1.413       .  A
C2081      C2088   1.454       .  S
C2082      C2083   1.410       .  A
C2083      C2084   1.415       .  A
C2083      C2086   1.450       .  S
C2084      C2087   1.450       .  S
C2085      N2092   1.157       .  T
C2086      N2091   1.157   1_455  T
C2087      N2089   1.157   1_455  T
C2088      N2090   1.157       .  T
C2093      C2094   1.406       .  A
C2093      C2098   1.406       .  A
C2094      C2095   1.407       .  A
C2094      C2099   1.452       .  S
C2095      C2096   1.419       .  A
C2095      C2102   1.452       .  S
C2096      C2097   1.420       .  A
C2097      C2098   1.404       .  A
C2097      C2100   1.452       .  S
C2098      C2101   1.454       .  S
C2099      N2106   1.157       .  T
C2100      N2105   1.158       .  T
C2101      N2103   1.157       .  T
C2102      N2104   1.157       .  T
C2107      C2108   1.407       .  A
C2107      C2112   1.410       .  A
C2108      C2109   1.409       .  A
C2108      C2113   1.451       .  S
C2109      C2110   1.420       .  A
C2109      C2116   1.453       .  S
C2110      C2111   1.415       .  A
C2111      C2112   1.411       .  A
C2111      C2114   1.451       .  S
C2112      C2115   1.452       .  S
C2113      N2120   1.157       .  T
C2114      N2119   1.157       .  T
C2115      N2117   1.157       .  T
C2116      N2118   1.158       .  T
C2121      C2122   1.421       .  A
C2121      C2126   1.415   1_556  A
C2122      C2123   1.416       .  A
C2122      C2127   1.453       .  S
C2123      C2124   1.415   1_556  A
C2123      C2130   1.452       .  S
C2124      C2125   1.420       .  A
C2125      C2126   1.416       .  A
C2125      C2128   1.452       .  S
C2126      C2129   1.452       .  S
C2127      N2134   1.158       .  T
C2128      N2133   1.158       .  T
C2129      N2131   1.157       .  T
C2130      N2132   1.157       .  T
C2135      C2136   1.411       .  A
C2135      C2140   1.414       .  A
C2136      C2137   1.409       .  A
C2136      C2141   1.453       .  S
C2137      C2138   1.420       .  A
C2137      C2144   1.453       .  S
C2138      C2139   1.415       .  A
C2139      C2140   1.415       .  A
C2139      C2142   1.450       .  S
C2140      C2143   1.451       .  S
C2141      N2148   1.157       .  T
C2142      N2147   1.157       .  T
C2143      N2145   1.157       .  T
C2144      N2146   1.157       .  T
C2149      C2150   1.421       .  A
C2149      C2154   1.415       .  A
C2150      C2151   1.415       .  A
C2150      C2155   1.452       .  S
C2151      C2152   1.414       .  A
C2151      C2158   1.452       .  S
C2152      C2153   1.420       .  A
C2153      C2154   1.412       .  A
C2153      C2156   1.453       .  S
C2154      C2157   1.453       .  S
C2155      N2162   1.158       .  T
C2156      N2161   1.158       .  T
C2157      N2159   1.157       .  T
C2158      N2160   1.157       .  T
C2163      C2164   1.409       .  A
C2163      C2168   1.407       .  A
C2164      C2165   1.406       .  A
C2164      C2169   1.453       .  S
C2165      C2166   1.416       .  A
C2165      C2172   1.452       .  S
C2166      C2167   1.418       .  A
C2167      C2168   1.404       .  A
C2167      C2170   1.453       .  S
C2168      C2171   1.452       .  S
C2169      N2176   1.157       .  T
C2170      N2175   1.158       .  T
C2171      N2173   1.157       .  T
C2172      N2174   1.157       .  T
C2177      C2178   1.421       .  A
C2177      C2182   1.419       .  A
C2178      C2179   1.417       .  A
C2178      C2183   1.452       .  S
C2179      C2180   1.418       .  A
C2179      C2186   1.452       .  S
C2180      C2181   1.420       .  A
C2181      C2182   1.417       .  A
C2181      C2184   1.452       .  S
C2182      C2185   1.452       .  S
C2183      N2190   1.158       .  T
C2184      N2189   1.158       .  T
C2185      N2187   1.157       .  T
C2186      N2188   1.157       .  T
C2191      C2192   1.418       .  A
C2191      C2196   1.414       .  A
C2192      C2193   1.419       .  A
C2192      C2197   1.450       .  S
C2193      C2194   1.411       .  A
C2193      C2200   1.449       .  S
C2194      C2195   1.413       .  A
C2195      C2196   1.409       .  A
C2195      C2198   1.450       .  S
C2196      C2199   1.452       .  S
C2197      N2204   1.157       .  T
C2198      N2203   1.156       .  T
C2199      N2201   1.157       .  T
C2200      N2202   1.157       .  T
C2205      C2206   1.418       .  A
C2205      C2210   1.420       .  A
C2206      C2207   1.408       .  A
C2206      C2211   1.451       .  S
C2207      C2208   1.406       .  A
C2207      C2214   1.452       .  S
C2208      C2209   1.404       .  A
C2209      C2210   1.403       .  A
C2209      C2212   1.451       .  S
C2210      C2213   1.453       .  S
C2211      N2218   1.157       .  T
C2212      N2217   1.156       .  T
C2213      N2215   1.157       .  T
C2214      N2216   1.157       .  T
C2219      C2220   1.417       .  A
C2219      C2224   1.419       .  A
C2220      C2221   1.417       .  A
C2220      C2225   1.450       .  S
C2221      C2222   1.415       .  A
C2221      C2228   1.450       .  S
C2222      C2223   1.414       .  A
C2223      C2224   1.406       .  A
C2223      C2226   1.455       .  S
C2224      C2227   1.451       .  S
C2225      N2232   1.157       .  T
C2226      N2231   1.158       .  T
C2227      N2229   1.157       .  T
C2228      N2230   1.157       .  T
C2233      C2234   1.407       .  A
C2233      C2238   1.417       .  A
C2234      C2235   1.413   1_655  A
C2234      C2239   1.451       .  S
C2235      C2236   1.417       .  A
C2235      C2242   1.449       .  S
C2236      C2237   1.407       .  A
C2237      C2238   1.413   1_455  A
C2237      C2240   1.450       .  S
C2238      C2241   1.450       .  S
C2239      N2246   1.157       .  T
C2240      N2245   1.157       .  T
C2241      N2243   1.157       .  T
C2242      N2244   1.157       .  T
C2247      C2248   1.419       .  A
C2247      C2252   1.422       .  A
C2248      C2249   1.414       .  A
C2248      C2253   1.452       .  S
C2249      C2250   1.416       .  A
C2249      C2256   1.452       .  S
C2250      C2251   1.416       .  A
C2251      C2252   1.409       .  A
C2251      C2254   1.454       .  S
C2252      C2255   1.454       .  S
C2253      N2260   1.157       .  T
C2254      N2259   1.158       .  T
C2255      N2257   1.158       .  T
C2256      N2258   1.158       .  T
C2261      C2262   1.415       .  A
C2261      C2266   1.417       .  A
C2262      C2263   1.413       .  A
C2262      C2267   1.453       .  S
C2263      C2264   1.421       .  A
C2263      C2270   1.452       .  S
C2264      C2265   1.419       .  A
C2265      C2266   1.414       .  A
C2266      C2269   1.452       .  S
C2267      N2274   1.157       .  T
C2268      N2273   1.157       .  T
C2269      N2271   1.157       .  T
C2270      N2272   1.158       .  T
C2275      C2276   1.413       .  A
C2275      C2280   1.413       .  A
C2276      C2277   1.409       .  A
C2276      C2281   1.453       .  S
C2277      C2278   1.412       .  A
C2277      C2284   1.451       .  S
C2278      C2279   1.412       .  A
C2279      C2280   1.416       .  A
C2279      C2282   1.449       .  S
C2280      C2283   1.450       .  S
C2281      N2288   1.157       .  T
C2282      N2287   1.157       .  T
C2283      N2285   1.157       .  T
C2284      N2286   1.157       .  T
C2289      C2290   1.414       .  A
C2289      C2294   1.413       .  A
C2290      C2291   1.407       .  A
C2290      C2295   1.452       .  S
C2291      C2292   1.409       .  A
C2291      C2298   1.451       .  S
C2292      C2293   1.407       .  A
C2293      C2294   1.405       .  A
C2293      C2296   1.448       .  S
C2294      C2297   1.452       .  S
C2295      N2302   1.157       .  T
C2296      N2301   1.156       .  T
C2298      N2300   1.157       .  T
C2303      C2304   1.408   1_655  A
C2303      C2308   1.416       .  A
C2304      C2305   1.412       .  A
C2304      C2309   1.451       .  S
C2305      C2306   1.419       .  A
C2305      C2312   1.452       .  S
C2306      C2307   1.411       .  A
C2307      C2308   1.412   1_455  A
C2307      C2310   1.451   1_455  S
C2308      C2311   1.452       .  S
C2309      N2316   1.157       .  T
C2310      N2315   1.157       .  T
C2311      N2313   1.157       .  T
C2312      N2314   1.157       .  T
C2317      C2318   1.414       .  A
C2317      C2322   1.413       .  A
C2318      C2319   1.416       .  A
C2318      C2323   1.449   1_655  S
C2319      C2320   1.410       .  A
C2319      C2326   1.449       .  S
C2320      C2321   1.412       .  A
C2321      C2322   1.410       .  A
C2321      C2324   1.452       .  S
C2322      C2325   1.451       .  S
C2323      N2330   1.157       .  T
C2324      N2329   1.157       .  T
C2325      N2327   1.157       .  T
C2326      N2328   1.157   1_655  T
C2331      C2332   1.412       .  A
C2331      C2336   1.409       .  A
C2332      C2333   1.405       .  A
C2332      C2337   1.454       .  S
C2333      C2334   1.413       .  A
C2333      C2340   1.452       .  S
C2334      C2335   1.414       .  A
C2335      C2336   1.408       .  A
C2335      C2338   1.452       .  S
C2336      C2339   1.451       .  S
C2337      N2344   1.158       .  T
C2338      N2343   1.157   1_655  T
C2339      N2341   1.157   1_655  T
C2340      N2342   1.157       .  T
C2345      C2346   1.413       .  A
C2345      C2350   1.414       .  A
C2346      C2347   1.408       .  A
C2346      C2351   1.453       .  S
C2347      C2348   1.419       .  A
C2347      C2354   1.453       .  S
C2348      C2349   1.416       .  A
C2349      C2350   1.413       .  A
C2349      C2352   1.451       .  S
C2350      C2353   1.452       .  S
C2351      N2358   1.158       .  T
C2352      N2357   1.157       .  T
C2353      N2355   1.157       .  T
C2354      N2356   1.158       .  T
C2359      C2360   1.418       .  A
C2359      C2364   1.416       .  A
C2360      C2361   1.414       .  A
C2360      C2365   1.452       .  S
C2361      C2362   1.418       .  A
C2361      C2368   1.452       .  S
C2362      C2363   1.422       .  A
C2363      C2364   1.416       .  A
C2363      C2366   1.452       .  S
C2364      C2367   1.452       .  S
C2365      N2372   1.158       .  T
C2366      N2371   1.157       .  T
C2367      N2369   1.158       .  T
C2368      N2370   1.157       .  T
C2373      C2374   1.420       .  A
C2373      C2378   1.415       .  A
C2375      C2382   1.452       .  S
C2376      C2377   1.420   1_545  A
C2377      C2378   1.415       .  A
C2377      C2380   1.452       .  S
C2378      C2381   1.452       .  S
C2379      N2386   1.158       .  T
C2380      N2385   1.158       .  T
C2381      N2383   1.157       .  T
C2382      N2384   1.157       .  T
C2387      C2388   1.409       .  A
C2387      C2392   1.412       .  A
C2388      C2389   1.408       .  A
C2388      C2393   1.454       .  S
C2389      C2390   1.420       .  A
C2389      C2396   1.452       .  S
C2390      C2391   1.417       .  A
C2391      C2392   1.414       .  A
C2393      N2400   1.157       .  T
C2394      N2399   1.157       .  T
C2395      N2397   1.157       .  T
C2396      N2398   1.157       .  T
C2401      C2402   1.419       .  A
C2401      C2406   1.414       .  A
C2402      C2403   1.416       .  A
C2402      C2407   1.452       .  S
C2403      C2404   1.414       .  A
C2403      C2410   1.451       .  S
C2404      C2405   1.421       .  A
C2405      C2406   1.414       .  A
C2405      C2408   1.453       .  S
C2406      C2409   1.452       .  S
C2407      N2414   1.157       .  T
C2409      N2411   1.157       .  T
C2410      N2412   1.157       .  T
C2415      C2416   1.404       .  A
C2415      C2420   1.404       .  A
C2416      C2417   1.408       .  A
C2416      C2421   1.451       .  S
C2417      C2418   1.421       .  A
C2417      C2424   1.451       .  S
C2418      C2419   1.422       .  A
C2419      C2420   1.404       .  A
C2419      C2422   1.452       .  S
C2420      C2423   1.454       .  S
C2421      N2428   1.157       .  T
C2422      N2427   1.158       .  T
C2423      N2425   1.157       .  T
C2424      N2426   1.157       .  T
C2429      C2430   1.419       .  A
C2429      C2434   1.411       .  A
C2430      C2431   1.415       .  A
C2430      C2435   1.450       .  S
C2431      C2432   1.410       .  A
C2431      C2438   1.451       .  S
C2432      C2433   1.419       .  A
C2433      C2434   1.415       .  A
C2433      C2436   1.450       .  S
C2434      C2437   1.451       .  S
C2435      N2442   1.157       .  T
C2436      N2441   1.157       .  T
C2437      N2439   1.157       .  T
C2438      N2440   1.157       .  T
C2443      C2444   1.417       .  A
C2443      C2448   1.411       .  A
C2444      C2445   1.414       .  A
C2444      C2449   1.454       .  S
C2445      C2446   1.419       .  A
C2445      C2452   1.452       .  S
C2446      C2447   1.424       .  A
C2447      C2448   1.418       .  A
C2447      C2450   1.451       .  S
C2448      C2451   1.451       .  S
C2449      N2456   1.157       .  T
C2450      N2455   1.158       .  T
C2451      N2453   1.157       .  T
C2452      N2454   1.158       .  T
C2457      C2458   1.405       .  A
C2457      C2462   1.407       .  A
C2458      C2459   1.405       .  A
C2458      C2463   1.454       .  S
C2459      C2460   1.423       .  A
C2459      C2466   1.452       .  S
C2460      C2461   1.423       .  A
C2461      C2462   1.408       .  A
C2461      C2464   1.452       .  S
C2462      C2465   1.452       .  S
C2463      N2470   1.157       .  T
C2464      N2469   1.158       .  T
C2465      N2467   1.157       .  T
C2466      N2468   1.157       .  T
C2471      C2472   1.408       .  A
C2471      C2476   1.412       .  A
C2472      C2473   1.409       .  A
C2472      C2477   1.453       .  S
C2473      C2474   1.419       .  A
C2473      C2480   1.451       .  S
C2474      C2475   1.415       .  A
C2475      C2476   1.414       .  A
C2475      C2478   1.450       .  S
C2476      C2479   1.451       .  S
C2477      N2484   1.157       .  T
C2478      N2483   1.157       .  T
C2479      N2481   1.157       .  T
C2480      N2482   1.157       .  T
C2485      C2486   1.415       .  A
C2485      C2490   1.407       .  A
C2486      C2487   1.413       .  A
C2486      C2491   1.450       .  S
C2487      C2488   1.409       .  A
C2487      C2494   1.450       .  S
C2488      C2489   1.418       .  A
C2489      C2490   1.412       .  A
C2489      C2492   1.451       .  S
C2490      C2493   1.451       .  S
C2491      N2498   1.157       .  T
C2492      N2497   1.157       .  T
C2493      N2495   1.157       .  T
C2494      N2496   1.157       .  T
C2499      C2500   1.422       .  A
C2499      C2504   1.420   1_655  A
C2500      C2501   1.414       .  A
C2500      C2505   1.453       .  S
C2501      C2502   1.418   1_655  A
C2501      C2508   1.453       .  S
C2502      C2503   1.421       .  A
C2503      C2504   1.416       .  A
C2503      C2506   1.452       .  S
C2504      C2507   1.453       .  S
C2505      N2512   1.158       .  T
C2506      N2511   1.158       .  T
C2507      N2509   1.157       .  T
C2508      N2510   1.157       .  T
C2513      C2514   1.414       .  A
C2513      C2518   1.411       .  A
C2514      C2515   1.407       .  A
C2514      C2519   1.451       .  S
C2515      C2516   1.409       .  A
C2515      C2522   1.451       .  S
C2516      C2517   1.415       .  A
C2517      C2518   1.414       .  A
C2517      C2520   1.451       .  S
C2518      C2521   1.450       .  S
C2519      N2526   1.157       .  T
C2520      N2525   1.157       .  T
C2521      N2523   1.157       .  T
C2522      N2524   1.157       .  T
C2527      C2528   1.421       .  A
C2527      C2532   1.409   1_556  A
C2528      C2529   1.416       .  A
C2528      C2533   1.452       .  S
C2529      C2530   1.411   1_556  A
C2529      C2536   1.451       .  S
C2530      C2531   1.417       .  A
C2531      C2532   1.412       .  A
C2531      C2534   1.445       .  S
C2532      C2535   1.452       .  S
C2533      N2540   1.157       .  T
C2534      N2539   1.155       .  T
C2535      N2537   1.157       .  T
C2536      N2538   1.157       .  T
C2541      C2542   1.416       .  A
C2541      C2546   1.422       .  A
C2542      C2543   1.419       .  A
C2542      C2547   1.450       .  S
C2543      C2544   1.419       .  A
C2543      C2550   1.451       .  S
C2544      C2545   1.415       .  A
C2545      C2546   1.413       .  A
C2545      C2548   1.453       .  S
C2547      N2554   1.157       .  T
C2548      N2553   1.157       .  T
C2549      N2551   1.158       .  T
C2550      N2552   1.157       .  T
C2555      C2556   1.413       .  A
C2555      C2560   1.411       .  A
C2556      C2557   1.408       .  A
C2556      C2561   1.452       .  S
C2557      C2558   1.412       .  A
C2557      C2564   1.451       .  S
C2558      C2559   1.413       .  A
C2559      C2560   1.403       .  A
C2559      C2562   1.452       .  S
C2560      C2563   1.453       .  S
C2561      N2568   1.157       .  T
C2562      N2567   1.157       .  T
C2563      N2565   1.157       .  T
C2564      N2566   1.157       .  T
C2569      C2570   1.418   1_554  A
C2569      C2574   1.416   1_655  A
C2570      C2571   1.412   1_565  A
C2570      C2575   1.453       .  S
C2573      C2574   1.412   1_556  A
C2573      C2576   1.453   1_556  S
C2574      C2577   1.453       .  S
C2575      N2582   1.158       .  T
C2577      N2579   1.158       .  T
C2578      N2580   1.157       .  T
C2583      C2584   1.413       .  A
C2583      C2588   1.412       .  A
C2584      C2585   1.416       .  A
C2584      C2589   1.450       .  S
C2585      C2586   1.412       .  A
C2585      C2592   1.450       .  S
C2586      C2587   1.410       .  A
C2587      C2588   1.407       .  A
C2587      C2590   1.451       .  S
C2588      C2591   1.452       .  S
C2589      N2596   1.157   1_655  T
C2590      N2595   1.157       .  T
C2591      N2593   1.157       .  T
C2592      N2594   1.157   1_655  T
C2597      C2598   1.414       .  A
C2597      C2602   1.412       .  A
C2598      C2599   1.410       .  A
C2598      C2603   1.451       .  S
C2599      C2600   1.410       .  A
C2599      C2606   1.450       .  S
C2600      C2601   1.409       .  A
C2601      C2602   1.401       .  A
C2601      C2604   1.453       .  S
C2602      C2605   1.451       .  S
C2603      N2610   1.157   1_655  T
C2604      N2609   1.157       .  T
C2605      N2607   1.157       .  T
C2606      N2608   1.157   1_655  T
C2611      C2612   1.407       .  A
C2611      C2616   1.413       .  A
C2612      C2613   1.409       .  A
C2612      C2617   1.451       .  S
C2613      C2614   1.416       .  A
C2613      C2620   1.451       .  S
C2614      C2615   1.410       .  A
C2615      C2616   1.411       .  A
C2615      C2618   1.450       .  S
C2616      C2619   1.450       .  S
C2617      N2624   1.157       .  T
C2620      N2622   1.157       .  T
