geometry optimzed in LAMMPS
_audit_creation_date              2020-12-01 
_audit_creation_method            'lammps2cif' 
_symmetry_space_group_name_H-M    'P1' 
_symmetry_Int_Tables_number       1 
_symmetry_cell_setting            triclinic 
loop_ 
_symmetry_equiv_pos_as_xyz 
  x,y,z 
_cell_length_a                    50.20950603 
_cell_length_b                    55.790606872463094 
_cell_length_c                    52.89382287178104 
_cell_angle_alpha                 89.68129161711185 
_cell_angle_beta                  89.89454076581512 
_cell_angle_gamma                 90.3099895148451 
loop_ 
_atom_site_label 
_atom_site_type_symbol 
_atom_site_fract_x 
_atom_site_fract_y 
_atom_site_fract_z 
_atom_site_charge 
C1          C  0.07810831  0.68513591  0.94156968     0.80400
N2          N  0.06279851  0.67085314  0.95639279    -0.77900
C3          C  0.04508687  0.65520641  0.94602957     0.82800
N4          N  0.04264013  0.65403486  0.92022976    -0.77900
C5          C  0.05825870  0.66844701  0.90518629     0.82900
N6          N  0.07552289  0.68381758  0.91629866    -0.79600
C7          C  0.88260519  0.68097174  0.93464667     0.80400
N8          N  0.88969285  0.68241693  0.91005372    -0.77900
C9          C  0.90998488  0.66923741  0.90069175     0.82800
N10         N  0.92431863  0.65463741  0.91639708    -0.77900
C11         C  0.91742010  0.65301348  0.94137612     0.82900
N12         N  0.89651415  0.66617515  0.95015835    -0.79600
C13         C  0.90654441  0.68432651  0.13508044     0.80400
N14         N  0.87984530  0.68442139  0.13189572    -0.77900
C15         C  0.86763574  0.66869891  0.11641310     0.82800
N16         N  0.88260801  0.65248063  0.10364395    -0.77900
C17         C  0.90952854  0.65143781  0.10742961     0.82900
N18         N  0.92150891  0.66772574  0.12286272    -0.79600
C19         C  0.04611014  0.66819838  0.15524262     0.80400
N20         N  0.07050094  0.67588843  0.14802057    -0.77900
C21         C  0.08042560  0.67104505  0.12493457     0.82800
N22         N  0.06507608  0.65854836  0.10838898    -0.77900
C23         C  0.04016720  0.65069021  0.11506887     0.82900
N24         N  0.03053937  0.65564283  0.13870495    -0.79600
C25         C  0.89880488  0.51012272  0.13510918     0.80400
N26         N  0.91612229  0.52514633  0.12294268    -0.77900
C27         C  0.90677283  0.54117343  0.10560483     0.82800
N28         N  0.88016192  0.54151968  0.10013493    -0.77900
C29         C  0.86291214  0.52688599  0.11284848     0.82900
N30         N  0.87251838  0.51127022  0.13005835    -0.79600
C31         C  0.88265017  0.51723335  0.93118621     0.80400
N32         N  0.88828211  0.51845253  0.90629013    -0.77900
C33         C  0.90944628  0.53116959  0.89757847     0.82800
N34         N  0.92531020  0.54336906  0.91418769    -0.77900
C35         C  0.91935196  0.54270136  0.93943114     0.82900
N36         N  0.89827826  0.52930452  0.94766827    -0.79600
C37         C  0.09837698  0.53473086  0.94158805     0.80400
N38         N  0.08021117  0.54682841  0.95548438    -0.77900
C39         C  0.05443595  0.54847678  0.94766458     0.82800
N40         N  0.04661389  0.53682081  0.92626135    -0.77900
C41         C  0.06490022  0.52455046  0.91224985     0.82900
N42         N  0.09053352  0.52409465  0.91998917    -0.79600
C43         C  0.05060536  0.53116212  0.15728502     0.80400
N44         N  0.07350941  0.52067173  0.14976331    -0.77900
C45         C  0.08092566  0.52033293  0.12520656     0.82800
N46         N  0.06514063  0.53144510  0.10780841    -0.77900
C47         C  0.04226967  0.54288232  0.11497117     0.82900
N48         N  0.03477035  0.54228861  0.13983983    -0.79600
O49         O  0.03227549  0.64486973  0.98733058    -0.75100
O50         O  0.01188070  0.62518854  0.95486653    -0.54000
C51         C  0.02859492  0.64064706  0.96361615     0.78600
O52         O  0.03255334  0.55117096  0.07220897    -0.59700
O53         O  0.00671644  0.56943231  0.10199640    -0.52700
C54         C  0.02586290  0.55525495  0.09531199     0.70600
O55         O  0.03953478  0.55561382  0.98855886    -0.74300
O56         O  0.01555077  0.57214486  0.95619203    -0.54800
C57         C  0.03500206  0.55948610  0.96499116     0.76600
O58         O  0.02979710  0.64359556  0.07250010    -0.59400
O59         O  0.00523027  0.62341911  0.10233446    -0.52500
C60         C  0.02369847  0.63847185  0.09560047     0.73200
Zr61       Zr  0.01630263  0.63348651  0.02948400     2.54700
O62         O  0.06466113  0.63622672  0.03130653    -0.80000
O63         O  0.01079081  0.67681788  0.02953380    -0.93400
Zr64       Zr  0.01960610  0.56318634  0.02946133     2.64700
O65         O  0.06799784  0.56530815  0.03243772    -0.98400
O66         O  0.01741561  0.51960301  0.02772848    -0.80400
O67         O  0.01957958  0.59864481  0.00444779    -0.83800
O68         O  0.01688507  0.59804930  0.05440338    -2.18500
O69         O  0.92048089  0.64037754  0.06657018    -0.67200
O70         O  0.94469945  0.62362941  0.09866150    -0.51700
C71         C  0.92592978  0.63722711  0.09002831     0.71600
O72         O  0.92922196  0.55053989  0.98175932    -0.60100
O73         O  0.95363378  0.57052540  0.95184059    -0.52100
C74         C  0.93535061  0.55547316  0.95865740     0.73400
O75         O  0.92163754  0.55002923  0.06503772    -0.71500
O76         O  0.94375523  0.56791603  0.09780732    -0.50100
C77         C  0.92542649  0.55398560  0.08865404     0.74800
O78         O  0.92596797  0.64200922  0.98318762    -0.66800
O79         O  0.95176969  0.62450776  0.95294072    -0.54000
C80         C  0.93286137  0.63869893  0.96005763     0.73200
Zr81       Zr  0.93845021  0.62995490  0.02559691     2.77500
O82         O  0.89026539  0.62542026  0.02245582    -0.97500
O83         O  0.93713227  0.67358612  0.02644831    -0.78400
Zr84       Zr  0.94234289  0.55987083  0.02487459     2.70100
O85         O  0.89502346  0.55155062  0.02003373    -0.79600
O86         O  0.95333833  0.51746624  0.02680709    -0.98700
Zr87       Zr  0.98181197  0.59748274  0.97679838     2.21500
Zr88       Zr  0.97618994  0.59601280  0.07804975     2.11100
O89         O  0.93849202  0.59462191  0.05024577    -2.47400
O90         O  0.94103571  0.59531179  0.00013918    -0.79400
O91         O  0.97592808  0.63194790  0.05285688    -0.71600
O92         O  0.98255527  0.56132417  0.00159695    -2.32600
O93         O  0.97877481  0.63272809  0.00243769    -2.28800
O94         O  0.97930608  0.56064207  0.05273345    -0.73400
H95         H  0.03206382  0.59840832  0.06560531     0.78600
H96         H  0.98389204  0.54748609  0.99086798     0.79700
H97         H  0.92206250  0.59416774  0.05971051     0.81900
H98         H  0.97869648  0.64715696  0.99198702     0.79600
H99         H  0.01696364  0.51574995  0.00948582     0.42600
H100        H  0.93704743  0.50963800  0.03355098     0.41600
H101        H  0.88640644  0.56738416  0.02173329     0.41200
H102        H  0.88461063  0.61765943  0.03848036     0.39200
H103        H  0.94302069  0.67800971  0.04366405     0.42300
H104        H  0.02721450  0.68304014  0.03755344     0.37100
H105        H  0.07094322  0.62154531  0.02277610     0.43200
H106        H  0.07163338  0.57709561  0.04593929     0.39600
H107        H  0.88336522  0.64197017  0.02354853     0.44500
H108        H  0.99658794  0.67972619  0.04213839     0.43300
H109        H  0.07337978  0.54970659  0.03976847     0.43400
H110        H  0.95419472  0.51235953  0.00892948     0.43800
C111        C  0.56210000  0.01112037  0.12605882     0.80400
N112        N  0.54898831  0.02645988  0.11037069    -0.77900
C113        C  0.53848362  0.01879427  0.08798872     0.82800
N114        N  0.54113993  0.99523582  0.08133559    -0.77900
C115        C  0.55417128  0.97978436  0.09716323     0.82900
N116        N  0.56470820  0.98800814  0.11902260    -0.79600
C117        C  0.55030688  0.01023005  0.91716017     0.80400
N118        N  0.55996542  0.98923904  0.92567342    -0.77900
C119        C  0.55857856  0.98293244  0.95032884     0.82800
N120        N  0.54555682  0.99763759  0.96684702    -0.77900
C121        C  0.53450387  0.01851654  0.95820345     0.82900
N122        N  0.53776575  0.02499341  0.93350827    -0.79600
C123        C  0.56409725  0.21116393  0.94908703     0.80400
N124        N  0.56426782  0.20611456  0.92410002    -0.77900
C125        C  0.55115996  0.18698609  0.91475983     0.82800
N126        N  0.53717756  0.17263627  0.93097312    -0.77900
C127        C  0.53587794  0.17780795  0.95618477     0.82900
N128        N  0.54976746  0.19699342  0.96532109    -0.79600
C129        C  0.54934875  0.22068416  0.09426517     0.80400
N130        N  0.53869749  0.20416924  0.07813764    -0.77900
C131        C  0.53998545  0.18027882  0.08406732     0.82800
N132        N  0.55304517  0.17324637  0.10550079    -0.77900
C133        C  0.56353668  0.18977203  0.12156512     0.82900
N134        N  0.56093137  0.21322120  0.11587427    -0.79600
C135        C  0.39231190  0.21242872  0.95313450     0.80400
N136        N  0.40614899  0.19829306  0.96974702    -0.77900
C137        C  0.41866247  0.17815425  0.96108354     0.82800
N138        N  0.41618866  0.17196034  0.93623603    -0.77900
C139        C  0.40279227  0.18622849  0.91978040     0.82900
N140        N  0.39149384  0.20638844  0.92844989    -0.79600
C141        C  0.38788521  0.01481308  0.92858350     0.80400
N142        N  0.40315814  0.02905549  0.94336429    -0.77900
C143        C  0.41665282  0.01987912  0.96352017     0.82800
N144        N  0.41386325  0.99612479  0.96943939    -0.77900
C145        C  0.39836256  0.98181371  0.95446554     0.82900
N146        N  0.38588304  0.99131252  0.93419982    -0.79600
C147        C  0.37673176  0.01278923  0.10651786     0.80400
N148        N  0.39403866  0.02741985  0.09431255    -0.77900
C149        C  0.41563888  0.01845056  0.08215737     0.82800
N150        N  0.41999917  0.99422907  0.08232618    -0.77900
C151        C  0.40260019  0.97943189  0.09498242     0.82900
N152        N  0.38114048  0.98897694  0.10673979    -0.79600
C153        C  0.40977911  0.21792299  0.09899729     0.80400
N154        N  0.42206687  0.20223131  0.08305848    -0.77900
C155        C  0.42468015  0.17872349  0.08998137     0.82800
N156        N  0.41458265  0.17117994  0.11268102    -0.77900
C157        C  0.40256461  0.18684963  0.12860657     0.82900
N158        N  0.40014445  0.21003078  0.12151338    -0.79600
O159        O  0.53083201  0.05889087  0.07542842    -0.75100
O160        O  0.50946828  0.02933768  0.05348790    -0.54000
C161        C  0.52539769  0.03665152  0.07104654     0.78600
O162        O  0.43229516  0.13862462  0.07847518    -0.59700
O163        O  0.45190076  0.16793880  0.05427325    -0.52700
C164        C  0.43707169  0.16078396  0.07293566     0.70600
O165        O  0.42930693  0.05796482  0.07476168    -0.74300
O166        O  0.45021928  0.02849274  0.05254998    -0.54800
C167        C  0.43327452  0.03581073  0.06909013     0.76600
O168        O  0.53284378  0.13970213  0.07285517    -0.59400
O169        O  0.51038915  0.16860039  0.05080597    -0.52500
C170        C  0.52709500  0.16179289  0.06792563     0.73200
Zr171      Zr  0.52162398  0.09902315  0.05835207     2.54700
O172        O  0.53087041  0.10023596  0.10347845    -0.80000
O173        O  0.56900128  0.09811313  0.04855512    -0.93400
Zr174      Zr  0.44336291  0.09853916  0.06327770     2.64700
O175        O  0.44956943  0.09584419  0.10887447    -0.98400
O176        O  0.39492130  0.09878611  0.06541638    -0.80400
O177        O  0.48247206  0.07505674  0.06137934    -0.83800
O178        O  0.48239557  0.12233747  0.06076560    -2.18500
O179        O  0.52714606  0.13813021  0.96808256    -0.67200
O180        O  0.50858114  0.16760296  0.99220947    -0.51700
C181        C  0.52301126  0.16025509  0.97348569     0.71600
O182        O  0.42695914  0.05904591  0.97491239    -0.60100
O183        O  0.44879255  0.02926886  0.99604808    -0.52100
C184        C  0.43193879  0.03685824  0.97939560     0.73400
O185        O  0.42667323  0.13862912  0.97381190    -0.71500
O186        O  0.44822910  0.16824102  0.99549522    -0.50100
C187        C  0.43184279  0.16082125  0.97832882     0.74800
O188        O  0.52579436  0.05822026  0.96923219    -0.66800
O189        O  0.50826304  0.02881633  0.99454324    -0.54000
C190        C  0.52210293  0.03608563  0.97536818     0.73200
Zr191      Zr  0.51647767  0.09840545  0.98464710     2.77500
O192        O  0.51607344  0.09620255  0.93864399    -0.97500
O193        O  0.56485594  0.09833371  0.98739090    -0.78400
Zr194      Zr  0.43813353  0.09886990  0.98964227     2.70100
O195        O  0.42917957  0.09866431  0.94444317    -0.79600
O196        O  0.39085993  0.09773023  0.00001061    -0.98700
Zr197      Zr  0.47985752  0.05083326  0.02414662     2.21500
Zr198      Zr  0.47970761  0.14657564  0.02321750     2.11100
O199        O  0.47745694  0.12210312  0.98618723    -2.47400
O200        O  0.47706414  0.07506069  0.98677570    -0.79400
O201        O  0.51949153  0.12293842  0.02111972    -0.71600
O202        O  0.44036263  0.07476983  0.02640995    -2.32600
O203        O  0.51981947  0.07455527  0.02174621    -2.28800
O204        O  0.43985104  0.12288829  0.02636942    -0.73400
H205        H  0.48322311  0.13220145  0.07561830     0.78600
H206        H  0.42454617  0.06472506  0.02704375     0.79700
H207        H  0.47657903  0.13182260  0.97102076     0.81900
H208        H  0.53526699  0.06453163  0.02097984     0.79600
H209        H  0.39077009  0.09762909  0.08369258     0.42600
H210        H  0.38558514  0.11476616  0.00111385     0.41600
H211        H  0.44621191  0.09369661  0.93665234     0.41200
H212        H  0.50716067  0.11100622  0.93278212     0.39200
H213        H  0.57099037  0.09925996  0.96961002     0.42300
H214        H  0.57665430  0.08722505  0.06144569     0.37100
H215        H  0.51492614  0.09293838  0.11151321     0.43200
H216        H  0.45867547  0.11095955  0.11356417     0.39600
H217        H  0.53492996  0.09823439  0.93358087     0.44500
H218        H  0.57568850  0.11421036  0.05324051     0.43300
H219        H  0.43142085  0.09731797  0.11603252     0.43400
H220        H  0.38215844  0.09185170  0.98442806     0.43800
C221        C  0.08625667  0.01286709  0.60518590     0.80400
N222        N  0.06960782  0.02586259  0.59030157    -0.77900
C223        C  0.04321579  0.01999944  0.58853111     0.82800
N224        N  0.03327176  0.00147794  0.60287153    -0.77900
C225        C  0.05010606  0.98865056  0.61803677     0.82900
N226        N  0.07622878  0.99445383  0.61877764    -0.79600
C227        C  0.86934346  0.00578507  0.60957119     0.80400
N228        N  0.88591710  0.02219105  0.59865612    -0.77900
C229        C  0.90930232  0.01549349  0.58773911     0.82800
N230        N  0.91686459  0.99205451  0.58892145    -0.77900
C231        C  0.90057342  0.97552954  0.60027952     0.82900
N232        N  0.87686571  0.98251885  0.61000460    -0.79600
C233        C  0.89373959  0.21305212  0.60545134     0.80400
N234        N  0.86795904  0.20603687  0.60710250    -0.77900
C235        C  0.85966750  0.18426370  0.59933283     0.82800
N236        N  0.87769724  0.16916791  0.58894358    -0.77900
C237        C  0.90367725  0.17601475  0.58612917     0.82900
N238        N  0.91180626  0.19795276  0.59468709    -0.79600
C239        C  0.04600163  0.21936960  0.60371016     0.80400
N240        N  0.06889220  0.21162265  0.61417747    -0.77900
C241        C  0.07572126  0.18835106  0.61433278     0.82800
N242        N  0.05922066  0.17227754  0.60295440    -0.77900
C243        C  0.03629708  0.17958379  0.59132837     0.82900
N244        N  0.02945468  0.20333613  0.59199457    -0.79600
C245        C  0.90143106  0.20311768  0.44135916     0.80400
N246        N  0.91671408  0.19082787  0.45816944    -0.77900
C247        C  0.90509225  0.17508808  0.47462698     0.82800
N248        N  0.87808046  0.17153735  0.47383172    -0.77900
C249        C  0.86270137  0.18425699  0.45735290     0.82900
N250        N  0.87475345  0.19966974  0.44111919    -0.79600
C251        C  0.86328638  0.01257338  0.45841556     0.80400
N252        N  0.88006762  0.02550888  0.47319296    -0.77900
C253        C  0.90587923  0.01851816  0.47674808     0.82800
N254        N  0.91527623  0.99902544  0.46398131    -0.77900
C255        C  0.89829701  0.98615442  0.44899294     0.82900
N256        N  0.87262802  0.99296570  0.44675689    -0.79600
C257        C  0.06352735  0.01416708  0.43272560     0.80400
N258        N  0.05013750  0.02916796  0.44834842    -0.77900
C259        C  0.03471219  0.02027976  0.46760277     0.82800
N260        N  0.03206698  0.99599904  0.47052693    -0.77900
C261        C  0.04595767  0.98103866  0.45500895     0.82900
N262        N  0.06156412  0.99033436  0.43656204    -0.79600
C263        C  0.05014304  0.21824382  0.46003954     0.80400
N264        N  0.07213958  0.20966385  0.44840167    -0.77900
C265        C  0.07872050  0.18628368  0.45001174     0.82800
N266        N  0.06271631  0.17109516  0.46342846    -0.77900
C267        C  0.04041767  0.17922541  0.47549203     0.82900
N268        N  0.03390488  0.20296927  0.47345297    -0.79600
O269        O  0.02494965  0.05976949  0.47939088    -0.75100
O270        O  0.00429439  0.02959079  0.50146947    -0.54000
C271        C  0.02033144  0.03744603  0.48405988     0.78600
O272        O  0.02584939  0.13930187  0.58227500    -0.59700
O273        O  0.00206262  0.16822399  0.56162452    -0.52700
C274        C  0.01999495  0.16137936  0.57764563     0.70600
O275        O  0.03057541  0.05926398  0.57922244    -0.74300
O276        O  0.00667193  0.02919156  0.56048142    -0.54800
C277        C  0.02542502  0.03699271  0.57514725     0.76600
O278        O  0.02835051  0.13925504  0.48408374    -0.59400
O279        O  0.00419902  0.16823750  0.50398018    -0.52500
C280        C  0.02297783  0.16134247  0.48879922     0.73200
Zr281      Zr  0.01203403  0.09915868  0.49465156     2.54700
O282        O  0.06037754  0.09611624  0.49556134    -0.80000
O283        O  0.00846997  0.10268923  0.44887941    -0.93400
Zr284      Zr  0.01336189  0.09882675  0.56890751     2.64700
O285        O  0.06176662  0.10133792  0.56710967    -0.98400
O286        O  0.01144650  0.09698723  0.61487305    -0.80400
O287        O  0.01369316  0.07514043  0.53169725    -0.83800
O288        O  0.01268188  0.12267777  0.53181516    -2.18500
O289        O  0.91619862  0.13597213  0.48527360    -0.67200
O290        O  0.94104726  0.16590144  0.50314632    -0.51700
C291        C  0.92187319  0.15812320  0.48891035     0.71600
O292        O  0.92002530  0.05600663  0.57986745    -0.60100
O293        O  0.94501075  0.02739756  0.56026059    -0.52100
C294        C  0.92605843  0.03402279  0.57517166     0.73400
O295        O  0.91791261  0.13649071  0.58004160    -0.71500
O296        O  0.94138076  0.16657056  0.56034391    -0.50100
C297        C  0.92257253  0.15876777  0.57500516     0.74800
O298        O  0.91821011  0.05761677  0.48591655    -0.66800
O299        O  0.94331626  0.02816881  0.50405612    -0.54000
C300        C  0.92396011  0.03553331  0.48982135     0.73200
Zr301      Zr  0.93387301  0.09719901  0.49679991     2.77500
O302        O  0.88574445  0.09424183  0.50202808    -0.97500
O303        O  0.93450348  0.09721926  0.45077937    -0.78400
Zr304      Zr  0.93577629  0.09677000  0.57071561     2.70100
O305        O  0.88775242  0.09600446  0.57707071    -0.79600
O306        O  0.94383170  0.09635465  0.61609260    -0.98700
Zr307      Zr  0.97496065  0.04987359  0.53207033     2.21500
Zr308      Zr  0.97285798  0.14606341  0.53225582     2.11100
O309        O  0.93409217  0.12074109  0.53359864    -2.47400
O310        O  0.93511022  0.07314121  0.53362618    -0.79400
O311        O  0.97236369  0.12213594  0.49482654    -0.71600
O312        O  0.97517746  0.07353816  0.57004657    -2.32600
O313        O  0.97342259  0.07443568  0.49484743    -2.28800
O314        O  0.97395476  0.12201375  0.57010616    -0.73400
H315        H  0.02820496  0.13296493  0.53185707     0.78600
H316        H  0.97570985  0.06346616  0.58466633     0.79700
H317        H  0.91803047  0.13012683  0.53363639     0.81900
H318        H  0.97296028  0.06461457  0.47965714     0.79600
H319        H  0.03032479  0.09654440  0.62022972     0.42600
H320        H  0.93554348  0.11126831  0.62232050     0.41600
H321        H  0.88025324  0.10007561  0.56029850     0.41200
H322        H  0.88003474  0.10997426  0.50861924     0.39200
H323        H  0.91608327  0.10139144  0.44584373     0.42300
H324        H  0.02685646  0.10618642  0.44308574     0.37100
H325        H  0.06606973  0.10748226  0.50882096     0.43200
H326        H  0.06567318  0.11486739  0.55548149     0.39600
H327        H  0.87873446  0.09369183  0.48458406     0.44500
H328        H  0.99869112  0.11782208  0.44598442     0.43300
H329        H  0.06706182  0.10728886  0.58397322     0.43400
H330        H  0.93219348  0.08336245  0.62268549     0.43800
C331        C  0.00232706  0.43069445  0.29224487    -0.10700
C332        C  0.98188475  0.43038405  0.27437349    -0.04500
C333        C  0.96512197  0.41070477  0.27121690    -0.10700
C334        C  0.96767996  0.39072753  0.28738718     0.10300
C335        C  0.98740365  0.39103084  0.30672179    -0.02500
C336        C  0.00498458  0.41100326  0.30913496     0.10100
C337        C  0.02450999  0.41062030  0.32818304    -0.12500
C338        C  0.02668712  0.39104876  0.34478739    -0.12500
C339        C  0.00940182  0.37125783  0.34285461     0.10100
C340        C  0.98973011  0.37115584  0.32340559    -0.02500
C341        C  0.95123278  0.37051518  0.28461684    -0.12600
C342        C  0.95346683  0.35105342  0.30100751    -0.12600
C343        C  0.97213118  0.35125666  0.32073409     0.10300
C344        C  0.97353076  0.33216944  0.33817207    -0.10700
C345        C  0.99244559  0.33279062  0.35731108    -0.04500
C346        C  0.01068737  0.35151875  0.35986037    -0.10700
H347        H  0.03807648  0.42560775  0.33043811     0.07500
H348        H  0.04185440  0.39154132  0.35930601     0.07500
H349        H  0.93631960  0.36974058  0.26987529     0.07700
H350        H  0.94022584  0.33589508  0.29833513     0.07700
H351        H  0.97988109  0.44542736  0.26145644     0.04200
H352        H  0.99272379  0.31825355  0.37098017     0.04200
C353        C  0.26236952  0.08384876  0.23170886    -0.10700
C354        C  0.28213852  0.10149512  0.23247953    -0.04500
C355        C  0.28292724  0.11898874  0.25124964    -0.10700
C356        C  0.26340009  0.11861616  0.27067017     0.10300
C357        C  0.24311137  0.10069121  0.27027717    -0.02500
C358        C  0.24241891  0.08340630  0.25055819     0.10100
C359        C  0.22181323  0.06629486  0.25013272    -0.12500
C360        C  0.20265845  0.06550246  0.26919789    -0.12500
C361        C  0.20324950  0.08202614  0.28910147     0.10100
C362        C  0.22335421  0.10008811  0.28953938    -0.02500
C363        C  0.26353555  0.13547454  0.29035538    -0.12600
C364        C  0.24394304  0.13497614  0.30924952    -0.12600
C365        C  0.22364746  0.11753055  0.30915666     0.10300
C366        C  0.20347031  0.11680520  0.32802986    -0.10700
C367        C  0.18449839  0.09851371  0.32743504    -0.04500
C368        C  0.18415361  0.08113782  0.30864660    -0.10700
H369        H  0.22050980  0.05324206  0.23510702     0.07500
H370        H  0.18727349  0.05185976  0.26824519     0.07500
H371        H  0.27883508  0.14919725  0.29120925     0.07700
H372        H  0.24477956  0.14831127  0.32402859     0.07700
H373        H  0.29724984  0.10180256  0.21775951     0.04200
H374        H  0.16929347  0.09784063  0.34207577     0.04200
C375        C  0.24207362  0.44035568  0.00955781    -0.10700
C376        C  0.23233429  0.44772422  0.03290366    -0.04500
C377        C  0.23813762  0.43548947  0.05521883    -0.10700
C378        C  0.25764591  0.41719851  0.05485473     0.10300
C379        C  0.26747117  0.40919735  0.03111046    -0.02500
C380        C  0.25874971  0.42014955  0.00826997     0.10100
C381        C  0.26632078  0.41027479  0.98497317    -0.12500
C382        C  0.28112846  0.38923452  0.98409307    -0.12500
C383        C  0.29099432  0.37886961  0.00636804     0.10100
C384        C  0.28514955  0.38954192  0.03008839    -0.02500
C385        C  0.26764513  0.40676930  0.07713785    -0.12600
C386        C  0.28757400  0.38922869  0.07611092    -0.12600
C387        C  0.29615012  0.38001252  0.05277673     0.10300
C388        C  0.31488945  0.36113732  0.05100898    -0.10700
C389        C  0.31937003  0.35045625  0.02764557    -0.04500
C390        C  0.30653549  0.35798335  0.00580363    -0.10700
H391        H  0.25992736  0.41824881  0.96730615     0.07500
H392        H  0.28556769  0.38154235  0.96582573     0.07500
H393        H  0.26076151  0.41277354  0.09544138     0.07700
H394        H  0.29550290  0.38224740  0.09367416     0.07700
H395        H  0.21786830  0.46214571  0.03343134     0.04200
H396        H  0.33206464  0.33475072  0.02668559     0.04200
C397        C  0.65453713  0.12804737  0.27244823    -0.10700
C398        C  0.64512654  0.10632091  0.26306595    -0.04500
C399        C  0.65296095  0.08437195  0.27304838    -0.10700
C400        C  0.66990750  0.08385889  0.29439327     0.10300
C401        C  0.67872474  0.10589705  0.30515788    -0.02500
C402        C  0.67100225  0.12815795  0.29415828     0.10100
C403        C  0.68005518  0.14964347  0.30501740    -0.12500
C404        C  0.69629049  0.14940365  0.32651319    -0.12500
C405        C  0.70459037  0.12766301  0.33740394     0.10100
C406        C  0.69584437  0.10565064  0.32653534    -0.02500
C407        C  0.67817430  0.06212720  0.30524859    -0.12600
C408        C  0.69512545  0.06188375  0.32616677    -0.12600
C409        C  0.70437837  0.08336662  0.33688642     0.10300
C410        C  0.72211380  0.08334450  0.35764625    -0.10700
C411        C  0.73048047  0.10506281  0.36790111    -0.04500
C412        C  0.72170755  0.12706410  0.35869626    -0.10700
H413        H  0.67437001  0.16678518  0.29705063     0.07500
H414        H  0.70265467  0.16636619  0.33438475     0.07500
H415        H  0.67162212  0.04515970  0.29752358     0.07700
H416        H  0.70109353  0.04471248  0.33386185     0.07700
H417        H  0.63249434  0.10647033  0.24638779     0.04200
H418        H  0.74420355  0.10482892  0.38376904     0.04200
C419        C  0.97076565  0.78890675  0.26701427    -0.10700
C420        C  0.99102366  0.77211543  0.26815078    -0.04500
C421        C  0.00994208  0.77189612  0.28739496    -0.10700
C422        C  0.00883946  0.78952156  0.30653022     0.10300
C423        C  0.98787501  0.80662474  0.30592855    -0.02500
C424        C  0.96876585  0.80633408  0.28604801     0.10100
C425        C  0.94829889  0.82335154  0.28571929    -0.12500
C426        C  0.94600200  0.84006702  0.30501675    -0.12500
C427        C  0.96436271  0.84048940  0.32497595     0.10100
C428        C  0.98588496  0.82400602  0.32525085    -0.02500
C429        C  0.02777233  0.79062259  0.32605781    -0.12600
C430        C  0.02644576  0.80848736  0.34455254    -0.12600
C431        C  0.00561839  0.82521920  0.34454622     0.10300
C432        C  0.00353749  0.84319762  0.36327778    -0.10700
C433        C  0.98118659  0.85781879  0.36360153    -0.04500
C434        C  0.96200057  0.85709583  0.34474061    -0.10700
H435        H  0.93372465  0.82363067  0.27065600     0.07500
H436        H  0.92970106  0.85267899  0.30424516     0.07500
H437        H  0.04388267  0.77781945  0.32691943     0.07700
H438        H  0.04152347  0.80891045  0.35916061     0.07700
H439        H  0.99182490  0.75842236  0.25367651     0.04200
H440        H  0.97945775  0.87130114  0.37821538     0.04200
C441        C  0.31603843  0.12304106  0.76958487    -0.10700
C442        C  0.32165234  0.10134619  0.78156471    -0.04500
C443        C  0.30852662  0.08015370  0.77522331    -0.10700
C444        C  0.29217847  0.07951689  0.75367264     0.10300
C445        C  0.28649639  0.10127976  0.74078041    -0.02500
C446        C  0.29764944  0.12334425  0.74930398     0.10100
C447        C  0.28957434  0.14485882  0.73779193    -0.12500
C448        C  0.27002117  0.14482084  0.71898680    -0.12500
C449        C  0.25929527  0.12316840  0.71001275     0.10100
C450        C  0.26830840  0.10112177  0.72034961    -0.02500
C451        C  0.28101598  0.05794184  0.74502495    -0.12600
C452        C  0.26512943  0.05754779  0.72344970    -0.12600
C453        C  0.25796702  0.07896558  0.71125847     0.10300
C454        C  0.24002918  0.07912117  0.69069116    -0.10700
C455        C  0.23133051  0.10097711  0.68100053    -0.04500
C456        C  0.23928306  0.12275576  0.69131476    -0.10700
H457        H  0.29775210  0.16188238  0.74383730     0.07500
H458        H  0.26367095  0.16180610  0.71110149     0.07500
H459        H  0.28497301  0.04114645  0.75459643     0.07700
H460        H  0.25760047  0.04043794  0.71695870     0.07700
H461        H  0.33447914  0.10141426  0.79810348     0.04200
H462        H  0.21598453  0.10098552  0.66652834     0.04200
C463        C  0.94998148  0.43841027  0.75656860    -0.10700
C464        C  0.97327392  0.44513230  0.76897457    -0.04500
C465        C  0.99759480  0.43424022  0.76445322    -0.10700
C466        C  0.99963070  0.41706418  0.74498129     0.10300
C467        C  0.97607954  0.40948764  0.73225136    -0.02500
C468        C  0.95091300  0.41961939  0.73862222     0.10100
C469        C  0.92777578  0.41051882  0.72712925    -0.12500
C470        C  0.92916133  0.39143552  0.71004841    -0.12500
C471        C  0.95385296  0.38189603  0.70277994     0.10100
C472        C  0.97765750  0.39141559  0.71348848    -0.02500
C473        C  0.02428052  0.40735170  0.73787149    -0.12600
C474        C  0.02602851  0.39086065  0.71809896    -0.12600
C475        C  0.00300336  0.38241253  0.70593450     0.10300
C476        C  0.00419800  0.36498178  0.68655152    -0.10700
C477        C  0.98060898  0.35594602  0.67659560    -0.04500
C478        C  0.95576271  0.36305644  0.68505390    -0.10700
H479        H  0.90842856  0.41780056  0.73173658     0.07500
H480        H  0.91085414  0.38458412  0.70197093     0.07500
H481        H  0.04245011  0.41295412  0.74717707     0.07700
H482        H  0.04548782  0.38432378  0.71272677     0.07700
H483        H  0.97227747  0.45885818  0.78341578     0.04200
H484        H  0.98160175  0.34157346  0.66281332     0.04200
C485        C  0.22689286  0.77158942  0.06750425    -0.10700
C486        C  0.21387528  0.76634194  0.04494279    -0.04500
C487        C  0.22010972  0.77794465  0.02232601    -0.10700
C488        C  0.24170670  0.79413931  0.02147768     0.10300
C489        C  0.25587161  0.79932922  0.04411286    -0.02500
C490        C  0.24814821  0.78840847  0.06741735     0.10100
C491        C  0.26179192  0.79464795  0.08964714    -0.12500
C492        C  0.28262278  0.81148567  0.08910565    -0.12500
C493        C  0.29075554  0.82222063  0.06624372     0.10100
C494        C  0.27738474  0.81588873  0.04346368    -0.02500
C495        C  0.24942111  0.80524641  0.99873623    -0.12600
C496        C  0.27141784  0.82044341  0.99785515    -0.12600
C497        C  0.28527150  0.82634280  0.01999123     0.10300
C498        C  0.30667760  0.84272152  0.01945000    -0.10700
C499        C  0.31920548  0.84898668  0.04188473    -0.04500
C500        C  0.31172882  0.83931891  0.06516274    -0.10700
H501        H  0.25627052  0.78662433  0.10760618     0.07500
H502        H  0.29251295  0.81594736  0.10665031     0.07500
H503        H  0.23879992  0.80187898  0.98131562     0.07700
H504        H  0.27714639  0.82800193  0.97973774     0.07700
H505        H  0.19738568  0.75363595  0.04523411     0.04200
H506        H  0.33508459  0.86231260  0.04126316     0.04200
C507        C  0.71850343  0.43751493  0.05241620    -0.10700
C508        C  0.73401390  0.44223860  0.03105707    -0.04500
C509        C  0.73206633  0.42850189  0.00926904    -0.10700
C510        C  0.71295191  0.40992083  0.00814040     0.10300
C511        C  0.69577408  0.40579675  0.02921507    -0.02500
C512        C  0.69856743  0.41961757  0.05154402     0.10100
C513        C  0.68167253  0.41501295  0.07225693    -0.12500
C514        C  0.66223975  0.39700195  0.07114145    -0.12500
C515        C  0.65953617  0.38275072  0.04948734     0.10100
C516        C  0.67651717  0.38719025  0.02830731    -0.02500
C517        C  0.71097032  0.39510018  0.98687318    -0.12600
C518        C  0.69240319  0.37649380  0.98618023    -0.12600
C519        C  0.67503845  0.37236821  0.00659235     0.10300
C520        C  0.65647390  0.35343534  0.00622036    -0.10700
C521        C  0.63912812  0.35009545  0.02643419    -0.04500
C522        C  0.64067144  0.36382317  0.04827071    -0.10700
H523        H  0.68333850  0.42543389  0.08939867     0.07500
H524        H  0.64951775  0.39407209  0.08743458     0.07500
H525        H  0.72391586  0.39771688  0.97068592     0.07700
H526        H  0.69161975  0.36538566  0.96947160     0.07700
H527        H  0.74923878  0.45608448  0.03196906     0.04200
H528        H  0.62517427  0.33514420  0.02583524     0.04200
C529        C  0.95505955  0.75505494  0.75669167    -0.10700
C530        C  0.97800086  0.74955428  0.77028372    -0.04500
C531        C  0.00067848  0.76387044  0.76944741    -0.10700
C532        C  0.00037678  0.78537810  0.75538129     0.10300
C533        C  0.97777648  0.79072426  0.74017552    -0.02500
C534        C  0.95517370  0.77521677  0.74035427     0.10100
C535        C  0.93356708  0.78034472  0.72440210    -0.12500
C536        C  0.93402776  0.80047447  0.70850628    -0.12500
C537        C  0.95571533  0.81649104  0.70873412     0.10100
C538        C  0.97765948  0.81176970  0.72507030    -0.02500
C539        C  0.02158159  0.80179382  0.75652092    -0.12600
C540        C  0.02063222  0.82330715  0.74303052    -0.12600
C541        C  0.99928579  0.82828901  0.72671314     0.10300
C542        C  0.99871854  0.84938904  0.71194681    -0.10700
C543        C  0.97789363  0.85293502  0.69494384    -0.04500
C544        C  0.95632930  0.83723790  0.69321322    -0.10700
H545        H  0.91631937  0.76861573  0.72396799     0.07500
H546        H  0.91712222  0.80365388  0.69628015     0.07500
H547        H  0.03872379  0.79832697  0.76836246     0.07700
H548        H  0.03703997  0.83581190  0.74503415     0.07700
H549        H  0.97812287  0.73372953  0.78234305     0.04200
H550        H  0.97800939  0.86900645  0.68324600     0.04200
C551        C  0.62733278  0.12007597  0.76227544    -0.10700
C552        C  0.62159797  0.09810605  0.77382856    -0.04500
C553        C  0.63143050  0.07639741  0.76470502    -0.10700
C554        C  0.64934662  0.07670098  0.74401610     0.10300
C555        C  0.65645371  0.09904805  0.73263213    -0.02500
C556        C  0.64476566  0.12073803  0.74123644     0.10100
C557        C  0.65105279  0.14236406  0.72879657    -0.12500
C558        C  0.66972051  0.14301303  0.70919196    -0.12500
C559        C  0.68284637  0.12209121  0.70155258     0.10100
C560        C  0.67563972  0.09975802  0.71288765    -0.02500
C561        C  0.66056315  0.05551248  0.73460391    -0.12600
C562        C  0.68028808  0.05632303  0.71598804    -0.12600
C563        C  0.68835826  0.07824515  0.70521617     0.10300
C564        C  0.70906720  0.07943371  0.68714914    -0.10700
C565        C  0.71573699  0.10141525  0.67621338    -0.04500
C566        C  0.70322594  0.12271139  0.68303996    -0.10700
H567        H  0.64187831  0.15900970  0.73448664     0.07500
H568        H  0.67428994  0.16012265  0.70039699     0.07500
H569        H  0.65478203  0.03819345  0.74220490     0.07700
H570        H  0.68917337  0.03964269  0.70999586     0.07700
H571        H  0.60858612  0.09785311  0.79026284     0.04200
H572        H  0.73210321  0.10211316  0.66275234     0.04200
C573        C  0.74030638  0.77506873  0.01936184    -0.10700
C574        C  0.74613551  0.76414392  0.04243319    -0.04500
C575        C  0.73165261  0.76875940  0.06434996    -0.10700
C576        C  0.71135534  0.78613229  0.06397775     0.10300
C577        C  0.70569765  0.79832170  0.04095032    -0.02500
C578        C  0.71996260  0.79260673  0.01840487     0.10100
C579        C  0.71343465  0.80450561  0.99578865    -0.12500
C580        C  0.69396806  0.82233061  0.99538112    -0.12500
C581        C  0.67998368  0.82840475  0.01745311     0.10100
C582        C  0.68558304  0.81610186  0.04044731    -0.02500
C583        C  0.69672999  0.79165785  0.08586097    -0.12600
C584        C  0.67696095  0.80918168  0.08536676    -0.12600
C585        C  0.67125089  0.82173659  0.06299303     0.10300
C586        C  0.65158042  0.83982931  0.06222688    -0.10700
C587        C  0.64675955  0.85170131  0.03954221    -0.04500
C588        C  0.66046307  0.84651301  0.01743534    -0.10700
H589        H  0.72364007  0.80031451  0.97832744     0.07500
H590        H  0.68981738  0.83131611  0.97763126     0.07500
H591        H  0.70065283  0.78252693  0.10357419     0.07700
H592        H  0.66623326  0.81297548  0.10265495     0.07700
H593        H  0.76179068  0.75080272  0.04313438     0.04200
H594        H  0.63198075  0.86587500  0.03913247     0.04200
C595        C  0.02976190  0.34822830  0.38118906     0.01500
C596        C  0.01892530  0.34908615  0.40579361     0.04300
C597        C  0.02480492  0.33080191  0.42345673    -0.11700
C598        C  0.04381957  0.31318139  0.41743070     0.23600
C599        C  0.05948905  0.31631896  0.39543703    -0.12300
C600        C  0.05188244  0.33329490  0.37693279     0.05000
C601        C  0.04315167  0.28924283  0.43049601     0.27500
C602        C  0.05444234  0.28563662  0.45464802    -0.13000
C603        C  0.05355737  0.26266525  0.46616595     0.05600
C604        C  0.04238547  0.24299635  0.45322404    -0.09000
C605        C  0.03079910  0.24669924  0.42932065     0.06400
C606        C  0.03105167  0.26961842  0.41811779    -0.13300
Br607      Br  0.08877777  0.29493761  0.38919739    -0.05400
Br608      Br  0.99220767  0.37268404  0.41309960     0.00200
Br609      Br  0.06863237  0.25767112  0.49922540     0.00700
Br610      Br  0.01661467  0.27352502  0.38469880    -0.03700
Br611      Br  0.06802483  0.33282402  0.34388939     0.00800
Br612      Br  0.00420507  0.32803249  0.45412120    -0.03000
Br613      Br  0.07339404  0.31148571  0.47072085    -0.03900
Br614      Br  0.01663872  0.21967433  0.41085627     0.00100
C615        C  0.19882460  0.13508965  0.34804200     0.01500
C616        C  0.19998805  0.12774224  0.37366180     0.04300
C617        C  0.18368643  0.13875738  0.39194799    -0.11700
C618        C  0.16596069  0.15705311  0.38468351     0.23600
C619        C  0.16734540  0.16641822  0.35988808    -0.12300
C620        C  0.18387588  0.15558383  0.34167439     0.05000
C621        C  0.14385765  0.16433302  0.40197415     0.27500
C622        C  0.11820375  0.15423673  0.39888989    -0.13000
C623        C  0.09708354  0.16096638  0.41495209     0.05600
C624        C  0.10151298  0.17747358  0.43467108    -0.09000
C625        C  0.12711973  0.18781828  0.43750128     0.06400
C626        C  0.14810321  0.18143084  0.42107668    -0.13300
Br627      Br  0.14461728  0.19269504  0.35037822    -0.05400
Br628      Br  0.22129486  0.10039161  0.38287251     0.00200
Br629      Br  0.06153833  0.14923300  0.40829081     0.00700
Br630      Br  0.18241766  0.19686386  0.42387011    -0.03700
Br631      Br  0.18322883  0.16676709  0.30713714     0.00800
Br632      Br  0.18390110  0.12746187  0.42648567    -0.03000
Br633      Br  0.11172428  0.13183856  0.37182751    -0.03900
Br634      Br  0.13354997  0.21085474  0.46391667     0.00100
C635        C  0.07824249  0.02291065  0.41009010     0.01500
C636        C  0.09822723  0.04068148  0.41213713     0.04300
C637        C  0.11352855  0.04717216  0.39076424    -0.11700
C638        C  0.10964375  0.03530873  0.36752492     0.23600
C639        C  0.09011996  0.01731868  0.36555627    -0.12300
C640        C  0.07383854  0.01169813  0.38643420     0.05000
C641        C  0.12677423  0.04141776  0.34548865     0.27500
C642        C  0.11819527  0.05826972  0.32732922    -0.13000
C643        C  0.13685245  0.06864166  0.31062371     0.05600
C644        C  0.16384904  0.06203750  0.31208624    -0.09000
C645        C  0.17103230  0.04189339  0.32660969     0.06400
C646        C  0.15268826  0.03197813  0.34388861    -0.13300
Br647      Br  0.08672777  0.99954911  0.33450616    -0.05400
Br648      Br  0.10618957  0.05486722  0.44447239     0.00200
Br649      Br  0.12664785  0.09424877  0.28809556     0.00700
Br650      Br  0.16369368  0.00716319  0.36705464    -0.03700
Br651      Br  0.04486515  0.98913854  0.38188531     0.00800
Br652      Br  0.14069851  0.07166957  0.39348773    -0.03000
Br653      Br  0.08161954  0.06856290  0.32680779    -0.03900
Br654      Br  0.20689490  0.02991768  0.32489225     0.00100
C655        C  0.04099571  0.95500615  0.45359794     0.01500
C656        C  0.06277613  0.93931702  0.45653165     0.04300
C657        C  0.06266731  0.91666149  0.44476626    -0.11700
C658        C  0.04074959  0.90960617  0.42996088     0.23600
C659        C  0.01861443  0.92496585  0.42785721    -0.12300
C660        C  0.01840070  0.94726505  0.44013840     0.05000
C661        C  0.04107592  0.88698378  0.41500524     0.27500
C662        C  0.04971585  0.88753419  0.38961994    -0.13000
C663        C  0.04223309  0.86900223  0.37300112     0.05600
C664        C  0.02466808  0.85072226  0.38129745    -0.09000
C665        C  0.01904037  0.84861451  0.40739639     0.06400
C666        C  0.02775031  0.86646517  0.42429928    -0.13300
Br667      Br  0.99031041  0.91700226  0.40498328    -0.05400
Br668      Br  0.09370754  0.94997978  0.47494843     0.00200
Br669      Br  0.05149742  0.87121145  0.33765822     0.00700
Br670      Br  0.01865760  0.86444175  0.45964973    -0.03700
Br671      Br  0.98860232  0.96865037  0.43554030     0.00800
Br672      Br  0.09356653  0.89642707  0.44652893    -0.03000
Br673      Br  0.06833253  0.91543001  0.37683165    -0.03900
Br674      Br  0.99448936  0.82415570  0.41883363     0.00100
C675        C  0.73356136  0.06164733  0.36982030     0.01500
C676        C  0.75660215  0.05128740  0.35937124     0.04300
C677        C  0.77433274  0.03850582  0.37500786    -0.11700
C678        C  0.76991426  0.03739103  0.40140545     0.23600
C679        C  0.74561778  0.04578794  0.41135774    -0.12300
C680        C  0.72711456  0.05713424  0.39537872     0.05000
C681        C  0.79255087  0.03191669  0.41875453     0.27500
C682        C  0.79340463  0.01043788  0.43292842    -0.13000
C683        C  0.81519300  0.00581083  0.44900750     0.05600
C684        C  0.83712565  0.02175205  0.44976889    -0.09000
C685        C  0.83582302  0.04360768  0.43622866     0.06400
C686        C  0.81349195  0.04877762  0.42112087    -0.13300
Br687      Br  0.73929919  0.04507411  0.44734201    -0.05400
Br688      Br  0.76604147  0.05796180  0.32465186     0.00200
Br689      Br  0.81535657  0.97742037  0.47003215     0.00700
Br690      Br  0.81252563  0.07846771  0.40212697    -0.03700
Br691      Br  0.69450212  0.06988179  0.40909295     0.00800
Br692      Br  0.80663501  0.02549213  0.36090794    -0.03000
Br693      Br  0.76592745  0.98650013  0.42881876    -0.03900
Br694      Br  0.86553877  0.06568698  0.43607878     0.00100
C695        C  0.94153283  0.87594021  0.34640197     0.01500
C696        C  0.95012432  0.89966204  0.34234433     0.04300
C697        C  0.93974959  0.91815247  0.35724362    -0.11700
C698        C  0.91931728  0.91300660  0.37502117     0.23600
C699        C  0.90691184  0.89022451  0.37473464    -0.12300
C700        C  0.91859960  0.87145674  0.36099601     0.05000
C701        C  0.91262266  0.93092281  0.39484159     0.27500
C702        C  0.91955670  0.92696880  0.42055944    -0.13000
C703        C  0.91647509  0.94549207  0.43843297     0.05600
C704        C  0.90745719  0.96815356  0.43057115    -0.09000
C705        C  0.90115040  0.97206822  0.40483745     0.06400
C706        C  0.90177354  0.95308997  0.38761488    -0.13300
Br707      Br  0.87490146  0.88448204  0.39405219    -0.05400
Br708      Br  0.97929658  0.90572083  0.31929592     0.00200
Br709      Br  0.92370674  0.93975052  0.47373103     0.00700
Br710      Br  0.88609312  0.95698349  0.35452507    -0.03700
Br711      Br  0.90551985  0.83907785  0.36445746     0.00800
Br712      Br  0.95594041  0.94962785  0.35492719    -0.03000
Br713      Br  0.93199601  0.89600574  0.43192033    -0.03900
Br714      Br  0.89243897  0.00385524  0.39274838     0.00100
C715        C  0.95481137  0.31157931  0.33928772     0.01500
C716        C  0.96533373  0.28842501  0.33616390     0.04300
C717        C  0.95459513  0.26906879  0.34999131    -0.11700
C718        C  0.93264976  0.27284022  0.36613796     0.23600
C719        C  0.91913334  0.29491612  0.36527864    -0.12300
C720        C  0.93043049  0.31444118  0.35209514     0.05000
C721        C  0.92545662  0.25451610  0.38548692     0.27500
C722        C  0.91195746  0.23346320  0.37839334    -0.13000
C723        C  0.90703189  0.21538650  0.39640424     0.05600
C724        C  0.91309632  0.21926105  0.42211607    -0.09000
C725        C  0.92642445  0.24037062  0.42935962     0.06400
C726        C  0.93313770  0.25775458  0.41097946    -0.13300
Br727      Br  0.88610747  0.29868432  0.38339696    -0.05400
Br728      Br  0.99651102  0.28420418  0.31533637     0.00200
Br729      Br  0.89300394  0.18481869  0.38563979     0.00700
Br730      Br  0.95218585  0.28630052  0.42094708    -0.03700
Br731      Br  0.91436170  0.34569198  0.35416611     0.00800
Br732      Br  0.97134647  0.23803225  0.34847772    -0.03000
Br733      Br  0.89887846  0.23003295  0.34432160    -0.03900
Br734      Br  0.93409538  0.24604830  0.46458182     0.00100
C735        C  0.83337118  0.18034402  0.45444014     0.01500
C736        C  0.81682596  0.20034459  0.44941734     0.04300
C737        C  0.79198002  0.19717626  0.43740880    -0.11700
C738        C  0.78301241  0.17398760  0.43146307     0.23600
C739        C  0.79687936  0.15408790  0.44114438    -0.12300
C740        C  0.82245137  0.15706639  0.45173901     0.05000
C741        C  0.76355866  0.16998181  0.41056073     0.27500
C742        C  0.73668407  0.16421333  0.41554462    -0.13000
C743        C  0.72096692  0.15340334  0.39658798     0.05600
C744        C  0.73208420  0.14823382  0.37268192    -0.09000
C745        C  0.75795087  0.15655337  0.36693834     0.06400
C746        C  0.77357507  0.16751066  0.38575003    -0.13300
Br747      Br  0.78113059  0.12264492  0.43823136    -0.05400
Br748      Br  0.82855756  0.23222973  0.45822506     0.00200
Br749      Br  0.68542318  0.14231792  0.40432065     0.00700
Br750      Br  0.81005199  0.17635592  0.37843422    -0.03700
Br751      Br  0.84313596  0.12898680  0.45925082     0.00800
Br752      Br  0.77077920  0.22439393  0.42779894    -0.03000
Br753      Br  0.72247808  0.16868172  0.44902845    -0.03900
Br754      Br  0.77343044  0.14936158  0.33447920     0.00100
C755        C  0.03975874  0.24502775  0.60768437     0.01500
C756        C  0.05998707  0.26205261  0.60220727     0.04300
C757        C  0.06087913  0.28414845  0.61495839    -0.11700
C758        C  0.04034588  0.29034674  0.63182248     0.23600
C759        C  0.01882172  0.27422184  0.63558392    -0.12300
C760        C  0.01882267  0.25144625  0.62407274     0.05000
C761        C  0.04156440  0.31321065  0.64647841     0.27500
C762        C  0.04485384  0.31248907  0.67300080    -0.13000
C763        C  0.03762362  0.33244506  0.68773137     0.05600
C764        C  0.02842034  0.35352809  0.67585815    -0.09000
C765        C  0.03154177  0.35587189  0.64940233     0.06400
C766        C  0.03641743  0.33542146  0.63459514    -0.13300
Br767      Br  0.99040660  0.28257875  0.65836177    -0.05400
Br768      Br  0.08780419  0.25420232  0.57842273     0.00200
Br769      Br  0.03560780  0.32939468  0.72397671     0.00700
Br770      Br  0.03206648  0.33725831  0.59839933    -0.03700
Br771      Br  0.99204522  0.22807170  0.63347733     0.00800
Br772      Br  0.09177432  0.30463862  0.61151885    -0.03000
Br773      Br  0.05621784  0.28319686  0.68918975    -0.03900
Br774      Br  0.02194284  0.38578892  0.63347229     0.00100
C775        C  0.22088282  0.14277820  0.68601413     0.01500
C776        C  0.19618482  0.14215980  0.69873933     0.04300
C777        C  0.17334327  0.15137628  0.68697701    -0.11700
C778        C  0.17553485  0.16330115  0.66340854     0.23600
C779        C  0.20100024  0.16716396  0.65269054    -0.12300
C780        C  0.22344190  0.15594323  0.66336256     0.05000
C781        C  0.15096876  0.17068893  0.64966115     0.27500
C782        C  0.14280663  0.15858731  0.62754962    -0.13000
C783        C  0.11835771  0.16427690  0.61589138     0.05600
C784        C  0.10118843  0.18137012  0.62690268    -0.09000
C785        C  0.10974145  0.19361147  0.64903398     0.06400
C786        C  0.13490487  0.18893951  0.65957182    -0.13300
Br787      Br  0.20486125  0.18676020  0.62274000    -0.05400
Br788      Br  0.19310434  0.12528156  0.73065443     0.00200
Br789      Br  0.10979765  0.14968134  0.58385811     0.00700
Br790      Br  0.14791892  0.20799557  0.68745518    -0.03700
Br791      Br  0.25696424  0.15612181  0.64562204     0.00800
Br792      Br  0.13886944  0.14539579  0.70214945    -0.03000
Br793      Br  0.16534501  0.13443186  0.61273626    -0.03900
Br794      Br  0.08701401  0.21611513  0.66646710     0.00100
C795        C  0.90111009  0.23641818  0.61728466     0.01500
C796        C  0.91985957  0.25242261  0.60631232     0.04300
C797        C  0.92418892  0.27526669  0.61716123    -0.11700
C798        C  0.90824708  0.28302900  0.63768096     0.23600
C799        C  0.88831033  0.26767212  0.64721969    -0.12300
C800        C  0.88674680  0.24388500  0.63897166     0.05000
C801        C  0.91490236  0.30532900  0.65196234     0.27500
C802        C  0.92519738  0.30330372  0.67676469    -0.13000
C803        C  0.93382387  0.32383145  0.68973112     0.05600
C804        C  0.93408858  0.34640362  0.67753282    -0.09000
C805        C  0.92280127  0.34861192  0.65322403     0.06400
C806        C  0.91201153  0.32832761  0.64100074    -0.13300
Br807      Br  0.86334553  0.27911462  0.67223501    -0.05400
Br808      Br  0.93960720  0.24356883  0.57646984     0.00200
Br809      Br  0.95055573  0.32034012  0.72244936     0.00700
Br810      Br  0.89426078  0.33194721  0.60890738    -0.03700
Br811      Br  0.86771894  0.22109671  0.66017699     0.00800
Br812      Br  0.95215622  0.29566356  0.60386088    -0.03000
Br813      Br  0.93029389  0.27213466  0.69234795    -0.03900
Br814      Br  0.92620689  0.37857415  0.63515246     0.00100
C815        C  0.71435764  0.14467481  0.67079331     0.01500
C816        C  0.73429052  0.15787328  0.68347354     0.04300
C817        C  0.75510205  0.16875434  0.66952631    -0.11700
C818        C  0.75638851  0.16570311  0.64309227     0.23600
C819        C  0.73466268  0.15532647  0.63032356    -0.12300
C820        C  0.71308536  0.14588401  0.64419490     0.05000
C821        C  0.78202166  0.16957209  0.62948523     0.27500
C822        C  0.78672764  0.19058381  0.61534611    -0.13000
C823        C  0.81114152  0.19376912  0.60257478     0.05600
C824        C  0.83186843  0.17687055  0.60551588    -0.09000
C825        C  0.82654052  0.15519242  0.61864602     0.06400
C826        C  0.80151614  0.15147069  0.63018020    -0.13300
Br827      Br  0.73632554  0.15078354  0.59424942    -0.05400
Br828      Br  0.73502092  0.15844594  0.71990085     0.00200
Br829      Br  0.81573471  0.22083332  0.58003351     0.00700
Br830      Br  0.79395237  0.12170624  0.64769805    -0.03700
Br831      Br  0.68352819  0.13097452  0.62706892     0.00800
Br832      Br  0.78347965  0.18547008  0.68665394    -0.03000
Br833      Br  0.76009763  0.21534059  0.61436903    -0.03900
Br834      Br  0.85350172  0.13090089  0.62242574     0.00100
C835        C  0.93546209  0.84480424  0.67490101     0.01500
C836        C  0.91603137  0.86114866  0.68314379     0.04300
C837        C  0.90737131  0.87961464  0.66682023    -0.11700
C838        C  0.91816157  0.88169928  0.64221731     0.23600
C839        C  0.93421755  0.86310317  0.63282586    -0.12300
C840        C  0.94227335  0.84436886  0.64904032     0.05000
C841        C  0.91609790  0.90492382  0.62814299     0.27500
C842        C  0.89707139  0.90829972  0.60893158    -0.13000
C843        C  0.89392653  0.93112636  0.59768635     0.05600
C844        C  0.90941861  0.95078465  0.60590100    -0.09000
C845        C  0.92951667  0.94704970  0.62405113     0.06400
C846        C  0.93294404  0.92417131  0.63490143    -0.13300
Br847      Br  0.94762968  0.86476318  0.59871428    -0.05400
Br848      Br  0.90391528  0.85979903  0.71770034     0.00200
Br849      Br  0.86810875  0.93575415  0.57120346     0.00700
Br850      Br  0.95979951  0.91942290  0.66024779    -0.03700
Br851      Br  0.96590036  0.81980114  0.63709908     0.00800
Br852      Br  0.88288962  0.90351443  0.67884910    -0.03000
Br853      Br  0.87452245  0.88196049  0.59900387    -0.03900
Br854      Br  0.95066957  0.97369253  0.63602849     0.00100
C855        C  0.84368488  0.01315523  0.62171683     0.01500
C856        C  0.82814771  0.03188332  0.61113827     0.04300
C857        C  0.80442012  0.03918101  0.62306341    -0.11700
C858        C  0.79526723  0.02738276  0.64505957     0.23600
C859        C  0.81013395  0.00838711  0.65534809    -0.12300
C860        C  0.83441461  0.00153383  0.64413022     0.05000
C861        C  0.77151861  0.03662324  0.65877110     0.27500
C862        C  0.77524973  0.05062062  0.68060082    -0.13000
C863        C  0.75328055  0.06101193  0.69268043     0.05600
C864        C  0.72782734  0.05966234  0.68161410    -0.09000
C865        C  0.72376963  0.04494269  0.66039043     0.06400
C866        C  0.74549751  0.03287065  0.64937308    -0.13300
Br867      Br  0.79747804  0.99237862  0.68563198    -0.05400
Br868      Br  0.83818090  0.04745318  0.57975244     0.00200
Br869      Br  0.75827028  0.07932849  0.72317867     0.00700
Br870      Br  0.74001946  0.01276418  0.62028161    -0.03700
Br871      Br  0.85534771  0.97740337  0.66132918     0.00800
Br872      Br  0.78480464  0.06616512  0.60979139    -0.03000
Br873      Br  0.81076153  0.05811347  0.69218857    -0.03900
Br874      Br  0.68887491  0.04297987  0.64541679     0.00100
C875        C  0.22698999  0.05769015  0.67954157     0.01500
C876        C  0.23106857  0.05360723  0.65352305     0.04300
C877        C  0.21053784  0.04365390  0.63881749    -0.11700
C878        C  0.18696035  0.03551214  0.65055809     0.23600
C879        C  0.18495481  0.03567958  0.67716027    -0.12300
C880        C  0.20441662  0.04761767  0.69159509     0.05000
C881        C  0.16278475  0.03060525  0.63519618     0.27500
C882        C  0.14331161  0.04859143  0.63274336    -0.13000
C883        C  0.11888610  0.04358935  0.62080493     0.05600
C884        C  0.11393252  0.02054176  0.61084428    -0.09000
C885        C  0.13431500  0.00311321  0.61172627     0.06400
C886        C  0.15855824  0.00806656  0.62408034    -0.13300
Br887      Br  0.15397434  0.02188584  0.69339018    -0.05400
Br888      Br  0.26343856  0.06495659  0.63768629     0.00200
Br889      Br  0.09152659  0.06778350  0.62073993     0.00700
Br890      Br  0.18545183  0.98366263  0.62704282    -0.03700
Br891      Br  0.19791712  0.05332093  0.72701319     0.00800
Br892      Br  0.21320580  0.04419172  0.60245747    -0.03000
Br893      Br  0.14964959  0.07981579  0.64721649    -0.03900
Br894      Br  0.12879582  0.97212691  0.59644884     0.00100
C895        C  0.04099609  0.97049894  0.63666345     0.01500
C896        C  0.03145140  0.94804197  0.62864916     0.04300
C897        C  0.03018723  0.92865080  0.64586771    -0.11700
C898        C  0.03850243  0.93171478  0.67126118     0.23600
C899        C  0.04842486  0.95407809  0.67907846    -0.12300
C900        C  0.04857765  0.97360081  0.66221053     0.05000
C901        C  0.03520121  0.91185825  0.68992947     0.27500
C902        C  0.01469522  0.91287765  0.70820163    -0.13000
C903        C  0.00692879  0.89188260  0.72103266     0.05600
C904        C  0.01779153  0.86969004  0.71384470    -0.09000
C905        C  0.04126194  0.86942078  0.69922006     0.06400
C906        C  0.05046789  0.89080230  0.68785135    -0.13300
Br907      Br  0.06387848  0.95740786  0.71231387    -0.05400
Br908      Br  0.02160845  0.94353499  0.59377902     0.00200
Br909      Br  0.97762690  0.89237952  0.74471133     0.00700
Br910      Br  0.08252925  0.89098413  0.66774945    -0.03700
Br911      Br  0.05947311  0.00480823  0.67424392     0.00800
Br912      Br  0.01863088  0.89754469  0.63402928    -0.03000
Br913      Br  0.99496225  0.94204402  0.71365507    -0.03900
Br914      Br  0.05866800  0.83952996  0.69210274     0.00100
C915        C  0.30420891  0.13749728  0.24801018     0.01500
C916        C  0.33106214  0.13018907  0.24956324     0.04300
C917        C  0.35078639  0.14202921  0.23510758    -0.11700
C918        C  0.34372509  0.16138821  0.21934346     0.23600
C919        C  0.31798749  0.17120189  0.22127712    -0.12300
C920        C  0.29808214  0.15903243  0.23522022     0.05000
C921        C  0.36033327  0.16719254  0.19670654     0.27500
C922        C  0.38178857  0.18352667  0.19782798    -0.13000
C923        C  0.39651456  0.18904357  0.17575440     0.05600
C924        C  0.38948508  0.17867620  0.15233721    -0.09000
C925        C  0.36789822  0.16244146  0.15129428     0.06400
C926        C  0.35381519  0.15632802  0.17345390    -0.13300
Br927      Br  0.30938712  0.19958490  0.20205620    -0.05400
Br928      Br  0.33988187  0.10168406  0.26847863     0.00200
Br929      Br  0.42650623  0.21067088  0.17767463     0.00700
Br930      Br  0.32497671  0.13328982  0.17186345    -0.03700
Br931      Br  0.26166088  0.16962403  0.23324080     0.00800
Br932      Br  0.38672072  0.13004223  0.23444721    -0.03000
Br933      Br  0.39050168  0.19869196  0.22942853    -0.03900
Br934      Br  0.35582435  0.15021501  0.11918980     0.00100
C935        C  0.32987099  0.34981866  0.07206571     0.01500
C936        C  0.35792895  0.35101681  0.07024838     0.04300
C937        C  0.37332882  0.33064656  0.07577151    -0.11700
C938        C  0.36108417  0.31005545  0.08626768     0.23600
C939        C  0.33378422  0.31072391  0.09270918    -0.12300
C940        C  0.31801388  0.33016564  0.08473228     0.05000
C941        C  0.37596156  0.28701553  0.08774953     0.27500
C942        C  0.36970639  0.26820923  0.07089396    -0.13000
C943        C  0.38286867  0.24604261  0.07280716     0.05600
C944        C  0.40270032  0.24260231  0.09127688    -0.09000
C945        C  0.41017463  0.26190577  0.10691660     0.06400
C946        C  0.39631331  0.28376594  0.10575078    -0.13300
Br947      Br  0.31741490  0.28359719  0.10954524    -0.05400
Br948      Br  0.37433954  0.37889193  0.05489764     0.00200
Br949      Br  0.37195006  0.21974232  0.05155638     0.00700
Br950      Br  0.40357945  0.30844392  0.13027251    -0.03700
Br951      Br  0.27975928  0.32774486  0.08673256     0.00800
Br952      Br  0.41015930  0.32973406  0.06521074    -0.03000
Br953      Br  0.34162115  0.27205842  0.04631466    -0.03900
Br954      Br  0.43946941  0.25822695  0.13006417     0.00100
C955        C  0.26438141  0.06650863  0.21052017     0.01500
C956        C  0.27626651  0.04397946  0.21475877     0.04300
C957        C  0.28951268  0.03238538  0.19483402    -0.11700
C958        C  0.29093121  0.04338580  0.17084247     0.23600
C959        C  0.27592359  0.06408302  0.16579297    -0.12300
C960        C  0.26221061  0.07537978  0.18557164     0.05000
C961        C  0.31227859  0.03632826  0.15309112     0.27500
C962        C  0.33789784  0.04635703  0.15617520    -0.13000
C963        C  0.35891384  0.03923275  0.14042976     0.05600
C964        C  0.35418644  0.02252621  0.12100443    -0.09000
C965        C  0.32825401  0.01330431  0.11722949     0.06400
C966        C  0.30750024  0.01964542  0.13375846    -0.13300
Br967      Br  0.27720775  0.07861732  0.13263071    -0.05400
Br968      Br  0.27713235  0.03031468  0.24828173     0.00200
Br969      Br  0.39446522  0.05104726  0.14703259     0.00700
Br970      Br  0.27301772  0.00457424  0.13091159    -0.03700
Br971      Br  0.24290828  0.10458657  0.17925748     0.00800
Br972      Br  0.30879463  0.00309876  0.20096785    -0.03000
Br973      Br  0.34447255  0.06900978  0.18301217    -0.03900
Br974      Br  0.32093681  0.99266165  0.08887792     0.00100
C975        C  0.40533502  0.95291849  0.09648974     0.01500
C976        C  0.40559223  0.93884333  0.07443861     0.04300
C977        C  0.39539292  0.91516337  0.07525638    -0.11700
C978        C  0.38451057  0.90583513  0.09796680     0.23600
C979        C  0.38841857  0.91850668  0.12058660    -0.12300
C980        C  0.39960074  0.94167431  0.11991133     0.05000
C981        C  0.36438113  0.88601759  0.09718223     0.27500
C982        C  0.33707871  0.89195376  0.09645517    -0.13000
C983        C  0.31775988  0.87399392  0.09264755     0.05600
C984        C  0.32564418  0.85048225  0.08692989    -0.09000
C985        C  0.35235745  0.84392207  0.09119584     0.06400
C986        C  0.37179006  0.86165721  0.09642573    -0.13300
Br987      Br  0.37523896  0.90534405  0.15200325    -0.05400
Br988      Br  0.41794035  0.95239196  0.04296176     0.00200
Br989      Br  0.28056071  0.88207894  0.09064076     0.00700
Br990      Br  0.40851149  0.85288337  0.10091485    -0.03700
Br991      Br  0.40532575  0.95887139  0.15102951     0.00800
Br992      Br  0.39434671  0.89616868  0.04499677    -0.03000
Br993      Br  0.32619980  0.92504526  0.09777938    -0.03900
Br994      Br  0.36223321  0.81091693  0.08688667     0.00100
C995        C  0.30835114  0.06165334  0.79531745     0.01500
C996        C  0.32730331  0.04318874  0.79512560     0.04300
C997        C  0.33616743  0.03346843  0.81815184    -0.11700
C998        C  0.32798858  0.04388653  0.84107435     0.23600
C999        C  0.30701080  0.06051949  0.84124489    -0.12300
C1000       C  0.29595253  0.06802085  0.81825812     0.05000
C1001       C  0.34251049  0.03821417  0.86456530     0.27500
C1002       C  0.33086525  0.02295945  0.88267754    -0.13000
C1003       C  0.34508036  0.01678035  0.90453164     0.05600
C1004       C  0.37180384  0.02461458  0.90757971    -0.09000
C1005       C  0.38331661  0.04025427  0.88947125     0.06400
C1006       C  0.36851515  0.04727958  0.86817007    -0.13300
Br1007     Br  0.29527163  0.07487591  0.87245272    -0.05400
Br1008     Br  0.34283630  0.03286648  0.76377450     0.00200
Br1009     Br  0.32699245  0.99835992  0.93053611     0.00700
Br1010     Br  0.38439654  0.06832350  0.84311719    -0.03700
Br1011     Br  0.26606152  0.08961042  0.81787554     0.00800
Br1012     Br  0.36084599  0.00708908  0.81858914    -0.03000
Br1013     Br  0.29592612  0.00942249  0.87668546    -0.03900
Br1014     Br  0.41987044  0.05084634  0.89250270     0.00100
C1015       C  0.31726234  0.85475591  0.99650964     0.01500
C1016       C  0.34447837  0.85137699  0.99097642     0.04300
C1017       C  0.35951763  0.87044421  0.98095829    -0.11700
C1018       C  0.34655871  0.89167810  0.97362118     0.23600
C1019       C  0.31855097  0.89244313  0.97325027    -0.12300
C1020       C  0.30391337  0.87480896  0.98635594     0.05000
C1021       C  0.36200930  0.91404403  0.96965350     0.27500
C1022       C  0.36117056  0.93226476  0.98810446    -0.13000
C1023       C  0.37454248  0.95412237  0.98385125     0.05600
C1024       C  0.39011323  0.95736268  0.96184387    -0.09000
C1025       C  0.39111028  0.93891435  0.94359444     0.06400
C1026       C  0.37659050  0.91756807  0.94725627    -0.13300
Br1027     Br  0.30080627  0.91874145  0.95665065    -0.05400
Br1028     Br  0.36168392  0.82203523  0.00119345     0.00200
Br1029     Br  0.36770892  0.98080655  0.00611452     0.00700
Br1030     Br  0.37450777  0.89398350  0.92070447    -0.03700
Br1031     Br  0.26695207  0.88055721  0.99402960     0.00800
Br1032     Br  0.39784795  0.86830907  0.97984776    -0.03000
Br1033     Br  0.33995312  0.92811420  0.01842413    -0.03900
Br1034     Br  0.41085769  0.94344400  0.91257234     0.00100
C1035       C  0.30706979  0.34049097  0.98489229     0.01500
C1036       C  0.29341075  0.31871688  0.98933480     0.04300
C1037       C  0.30492310  0.29701028  0.98179177    -0.11700
C1038       C  0.32858516  0.29738912  0.96730276     0.23600
C1039       C  0.33824895  0.31945832  0.95776276    -0.12300
C1040       C  0.32837931  0.34105905  0.96761200     0.05000
C1041       C  0.34476202  0.27524444  0.96464783     0.27500
C1042       C  0.36911620  0.27285078  0.97793289    -0.13000
C1043       C  0.38429091  0.25169073  0.97577631     0.05600
C1044       C  0.37482208  0.23256917  0.96089337    -0.09000
C1045       C  0.34939604  0.23447342  0.94932898     0.06400
C1046       C  0.33533295  0.25612606  0.94994036    -0.13300
Br1047     Br  0.36626014  0.31987650  0.93281961    -0.05400
Br1048     Br  0.26170355  0.31865844  0.01006221     0.00200
Br1049     Br  0.41827986  0.24944179  0.99250194     0.00700
Br1050     Br  0.30390317  0.26006489  0.92928359    -0.03700
Br1051     Br  0.34632963  0.37091869  0.96052283     0.00800
Br1052     Br  0.28984634  0.26715483  0.99395180    -0.03000
Br1053     Br  0.38230170  0.29894585  0.99840874    -0.03900
Br1054     Br  0.33268535  0.20705028  0.93344165     0.00100
C1055       C  0.32803982  0.14441232  0.78193385     0.01500
C1056       C  0.35604558  0.14654684  0.78153966     0.04300
C1057       C  0.36962178  0.15624712  0.80239115    -0.11700
C1058       C  0.35514561  0.16481595  0.82326667     0.23600
C1059       C  0.32713709  0.16621306  0.82186786    -0.12300
C1060       C  0.31356545  0.15586743  0.80128083     0.05000
C1061       C  0.36915557  0.16971411  0.84750132     0.27500
C1062       C  0.36917882  0.15213360  0.86677862    -0.13000
C1063       C  0.38189834  0.15662614  0.89001935     0.05600
C1064       C  0.39555382  0.17854735  0.89383080    -0.09000
C1065       C  0.39688110  0.19546383  0.87380959     0.06400
C1066       C  0.38316485  0.19132269  0.85102254    -0.13300
Br1067     Br  0.30743822  0.18053263  0.84918559    -0.05400
Br1068     Br  0.37573555  0.13315169  0.75374284     0.00200
Br1069     Br  0.37830044  0.13338987  0.91704833     0.00700
Br1070     Br  0.38261754  0.21554961  0.82485931    -0.03700
Br1071     Br  0.27518071  0.15485821  0.80110176     0.00800
Br1072     Br  0.40801457  0.15546043  0.80357916    -0.03000
Br1073     Br  0.35092147  0.12206864  0.86150365    -0.03900
Br1074     Br  0.41776443  0.22437904  0.87747298     0.00100
C1075       C  0.62357116  0.35485870  0.06932259     0.01500
C1076       C  0.59581117  0.35499770  0.06523378     0.04300
C1077       C  0.58004034  0.33534698  0.07305315    -0.11700
C1078       C  0.59174420  0.31612641  0.08632627     0.23600
C1079       C  0.61841771  0.31831243  0.09457895    -0.12300
C1080       C  0.63441799  0.33751689  0.08580005     0.05000
C1081       C  0.57811116  0.29221237  0.08684009     0.27500
C1082       C  0.55721369  0.28708418  0.10390423    -0.13000
C1083       C  0.54513284  0.26415472  0.10411587     0.05600
C1084       C  0.55386403  0.24614601  0.08737989    -0.09000
C1085       C  0.57382040  0.25172097  0.06948319     0.06400
C1086       C  0.58591681  0.27456120  0.06931507    -0.13300
Br1087     Br  0.63395473  0.29325816  0.11493518    -0.05400
Br1088     Br  0.58078838  0.37972125  0.04409130     0.00200
Br1089     Br  0.51727343  0.25683875  0.12813205     0.00700
Br1090     Br  0.61451598  0.28123616  0.04596102    -0.03700
Br1091     Br  0.67222941  0.33759487  0.09228324     0.00800
Br1092     Br  0.54347322  0.33310977  0.06218822    -0.03000
Br1093     Br  0.54619339  0.31099851  0.12786433    -0.03900
Br1094     Br  0.58670044  0.22730501  0.04685178     0.00100
C1095       C  0.64915362  0.14890538  0.25570231     0.01500
C1096       C  0.62528311  0.16175779  0.25870466     0.04300
C1097       C  0.61241408  0.17158671  0.23737843    -0.11700
C1098       C  0.62303320  0.16790451  0.21300774     0.23600
C1099       C  0.64848042  0.15760223  0.21043061    -0.12300
C1100       C  0.66181786  0.14880765  0.23186650     0.05000
C1101       C  0.60709902  0.17367905  0.19006331     0.27500
C1102       C  0.58606104  0.15846592  0.18242133    -0.13000
C1103       C  0.57147932  0.16363281  0.16025810     0.05600
C1104       C  0.57919143  0.18308074  0.14450506    -0.09000
C1105       C  0.60124344  0.19758385  0.15185779     0.06400
C1106       C  0.61380565  0.19375884  0.17523914    -0.13300
Br1107     Br  0.66395527  0.15325025  0.17734509    -0.05400
Br1108     Br  0.60907456  0.16376342  0.29161606     0.00200
Br1109     Br  0.54009996  0.14478678  0.15282473     0.00700
Br1110     Br  0.63970169  0.21656938  0.18760534    -0.03700
Br1111     Br  0.69562718  0.13283919  0.22821147     0.00800
Br1112     Br  0.57942646  0.18873793  0.24115037    -0.03000
Br1113     Br  0.57694028  0.13069340  0.20266589    -0.03900
Br1114     Br  0.61642459  0.22172017  0.12954618     0.00100
C1115       C  0.65605510  0.33405902  0.98739305     0.01500
C1116       C  0.66541988  0.31152702  0.99546982     0.04300
C1117       C  0.65297850  0.29056953  0.98681355    -0.11700
C1118       C  0.63214662  0.29227617  0.96905195     0.23600
C1119       C  0.62652072  0.31449277  0.95749664    -0.12300
C1120       C  0.63804886  0.33554440  0.96712928     0.05000
C1121       C  0.61464222  0.27130493  0.96451023     0.27500
C1122       C  0.62397057  0.25210822  0.95001566    -0.13000
C1123       C  0.60838551  0.23134260  0.94754769     0.05600
C1124       C  0.58227918  0.23038194  0.95777250    -0.09000
C1125       C  0.57293663  0.24960967  0.97246518     0.06400
C1126       C  0.58904800  0.27012869  0.97569522    -0.13300
Br1127     Br  0.60137050  0.31608003  0.93005769    -0.05400
Br1128     Br  0.69201652  0.30986956  0.02175670     0.00200
Br1129     Br  0.62366111  0.20383204  0.93089463     0.00700
Br1130     Br  0.57522813  0.29732745  0.99392318    -0.03700
Br1131     Br  0.62659176  0.36647152  0.95516262     0.00800
Br1132     Br  0.66257125  0.25995884  0.00133307    -0.03000
Br1133     Br  0.65741292  0.25501497  0.93210183    -0.03900
Br1134     Br  0.53785676  0.24843501  0.98737015     0.00100
C1135       C  0.55610938  0.18039571  0.88788762     0.01500
C1136       C  0.55550572  0.19826270  0.86868718     0.04300
C1137       C  0.56571845  0.19347611  0.84432593    -0.11700
C1138       C  0.57518012  0.17048417  0.83852286     0.23600
C1139       C  0.57353357  0.15217318  0.85688416    -0.12300
C1140       C  0.56544326  0.15728859  0.88175484     0.05000
C1141       C  0.58819890  0.16523662  0.81379060     0.27500
C1142       C  0.57348550  0.15438807  0.79427400    -0.13000
C1143       C  0.58684440  0.14310680  0.77419182     0.05600
C1144       C  0.61488191  0.14138283  0.77431705    -0.09000
C1145       C  0.62955028  0.15475345  0.79210455     0.06400
C1146       C  0.61616516  0.16703328  0.81156377    -0.13300
Br1147     Br  0.58252204  0.11991707  0.84768726    -0.05400
Br1148     Br  0.54069153  0.22940689  0.87556989     0.00200
Br1149     Br  0.56687198  0.12788151  0.74763916     0.00700
Br1150     Br  0.63617505  0.18440773  0.83663721    -0.03700
Br1151     Br  0.57091169  0.13332162  0.90766474     0.00800
Br1152     Br  0.56725187  0.21832299  0.81889907    -0.03000
Br1153     Br  0.53522650  0.15250372  0.79675737    -0.03900
Br1154     Br  0.66793762  0.15388292  0.79161090     0.00100
C1155       C  0.65393694  0.86256607  0.99604694     0.01500
C1156       C  0.63083810  0.85755128  0.98189526     0.04300
C1157       C  0.61560992  0.87646673  0.97186030    -0.11700
C1158       C  0.62278830  0.90040593  0.97714048     0.23600
C1159       C  0.64711709  0.90532009  0.98946479    -0.12300
C1160       C  0.66315500  0.88637405  0.99787835     0.05000
C1161       C  0.60515926  0.92058295  0.96979340     0.27500
C1162       C  0.61352542  0.93635063  0.95058424    -0.13000
C1163       C  0.59967046  0.95772029  0.94624415     0.05600
C1164       C  0.57488285  0.96200570  0.95853977    -0.09000
C1165       C  0.56581305  0.94547744  0.97704282     0.06400
C1166       C  0.58153274  0.92539334  0.98339739    -0.13300
Br1167     Br  0.65743035  0.93796824  0.99695097    -0.05400
Br1168     Br  0.61835931  0.82492528  0.97933517     0.00200
Br1169     Br  0.61712134  0.98184123  0.92540616     0.00700
Br1170     Br  0.57109426  0.90484074  0.01121343    -0.03700
Br1171     Br  0.69585191  0.89294213  0.01572535     0.00800
Br1172     Br  0.58424373  0.86966409  0.95212306    -0.03000
Br1173     Br  0.64466731  0.92880647  0.93053295    -0.03900
Br1174     Br  0.53169534  0.94958847  0.99323656     0.00100
C1175       C  0.55874408  0.01821835  0.89173823     0.01500
C1176       C  0.57661211  0.03771758  0.88918909     0.04300
C1177       C  0.58964052  0.04191680  0.86599177    -0.11700
C1178       C  0.58510755  0.02656155  0.84525460     0.23600
C1179       C  0.56768496  0.00683915  0.84801762    -0.12300
C1180       C  0.55402967  0.00307881  0.87094783     0.05000
C1181       C  0.59733691  0.03224717  0.82025920     0.27500
C1182       C  0.58143435  0.04174626  0.80073464    -0.13000
C1183       C  0.59354690  0.05117157  0.77888893     0.05600
C1184       C  0.62139871  0.05452776  0.77808115    -0.09000
C1185       C  0.63733829  0.04274042  0.79623764     0.06400
C1186       C  0.62513003  0.03055580  0.81667560    -0.13300
Br1187     Br  0.56373988  0.98418981  0.82083526    -0.05400
Br1188     Br  0.58506107  0.05769223  0.91788410     0.00200
Br1189     Br  0.57201489  0.06222072  0.75108640     0.00700
Br1190     Br  0.64640065  0.01328958  0.84098150    -0.03700
Br1191     Br  0.52858749  0.97716557  0.87395750     0.00800
Br1192     Br  0.61489755  0.06800692  0.86319732    -0.03000
Br1193     Br  0.54340180  0.04483805  0.80507624    -0.03900
Br1194     Br  0.67560163  0.04524236  0.79487457     0.00100
C1195       C  0.64279751  0.06315523  0.25908251     0.01500
C1196       C  0.65721806  0.05471561  0.23802785     0.04300
C1197       C  0.64393821  0.04249130  0.21844830    -0.11700
C1198       C  0.61588018  0.04097263  0.21848149     0.23600
C1199       C  0.60163176  0.04844167  0.24006375    -0.12300
C1200       C  0.61536687  0.05805554  0.26091052     0.05000
C1201       C  0.60150013  0.03349596  0.19508582     0.27500
C1202       C  0.60060886  0.04902232  0.17395325    -0.13000
C1203       C  0.58867106  0.04148473  0.15119218     0.05600
C1204       C  0.57476798  0.01934911  0.15014519    -0.02100
C1205       C  0.57490112  0.00421580  0.17187345     0.06400
C1206       C  0.58950701  0.01072256  0.19355221    -0.13300
Br1207     Br  0.56324939  0.04860511  0.23987069    -0.05400
Br1208     Br  0.69435330  0.06288159  0.23424837     0.00200
Br1209     Br  0.59453765  0.06046245  0.12101150     0.00700
Br1210     Br  0.59478088  0.98781856  0.22055884    -0.03700
Br1211     Br  0.59644076  0.06711634  0.29111481     0.00800
Br1212     Br  0.66382870  0.02954818  0.19046442    -0.03000
Br1213     Br  0.61656447  0.08053052  0.17598818    -0.03900
Br1214     Br  0.55444639  0.97482163  0.17308076     0.00100
C1215       C  0.63493032  0.84836449  0.08368539     0.01500
C1216       C  0.64448862  0.86784824  0.09797073     0.04300
C1217       C  0.62695582  0.88631955  0.10516719    -0.11700
C1218       C  0.60041664  0.88624043  0.09624793     0.23600
C1219       C  0.59010253  0.86500408  0.08550725    -0.12300
C1220       C  0.60717128  0.84553244  0.08083073     0.05000
C1221       C  0.58551183  0.90938811  0.09398193     0.27500
C1222       C  0.56265518  0.91401186  0.10873559    -0.13000
C1223       C  0.54940758  0.93618490  0.10641799     0.05600
C1224       C  0.55982536  0.95450323  0.09072508    -0.09000
C1225       C  0.58171298  0.94950013  0.07502669     0.06400
C1226       C  0.59447596  0.92708651  0.07657956    -0.13300
Br1227     Br  0.55387378  0.86364445  0.07354786    -0.05400
Br1228     Br  0.68221904  0.87134707  0.10346876     0.00200
Br1229     Br  0.51692478  0.94187080  0.12486944     0.00700
Br1230     Br  0.62557016  0.92141963  0.05601721    -0.03700
Br1231     Br  0.59388925  0.81688608  0.06487103     0.00800
Br1232     Br  0.63998364  0.91329403  0.12426154    -0.03000
Br1233     Br  0.55103192  0.89112223  0.13394037    -0.03900
Br1234     Br  0.59531829  0.97410467  0.05262970     0.00100
C1235       C  0.02162210  0.45090189  0.28904293     0.01500
C1236       C  0.04362200  0.44701874  0.27299410     0.04300
C1237       C  0.05132500  0.46481609  0.25535489    -0.11700
C1238       C  0.03722841  0.48660414  0.25403619     0.23600
C1239       C  0.01862619  0.49200552  0.27311227    -0.12300
C1240       C  0.01154825  0.47438524  0.29115802     0.05000
C1241       C  0.03809703  0.50129940  0.23036464     0.27500
C1242       C  0.05620660  0.52044922  0.22733748    -0.13000
C1243       C  0.05790859  0.53270941  0.20393962     0.05600
C1244       C  0.04167844  0.52576474  0.18340454    -0.09000
C1245       C  0.02235557  0.50766204  0.18706273     0.06400
C1246       C  0.02085716  0.49533658  0.21031178    -0.13300
Br1247     Br  0.00030915  0.52226408  0.27228316    -0.05400
Br1248     Br  0.06030273  0.41599248  0.27244441     0.00200
Br1249     Br  0.08321633  0.55848611  0.19947712     0.00700
Br1250     Br  0.99701116  0.46849554  0.21391497    -0.03700
Br1251     Br  0.98473799  0.48082365  0.31624426     0.00800
Br1252     Br  0.07876190  0.45823304  0.23086688    -0.03000
Br1253     Br  0.07991925  0.52853066  0.25461381    -0.03900
Br1254     Br  0.99984101  0.49781233  0.15937231     0.00100
C1255       C  0.10518638  0.50641886  0.11784494     0.01500
C1256       C  0.12438992  0.51619026  0.10106276     0.04300
C1257       C  0.14726518  0.50288904  0.09444528    -0.11700
C1258       C  0.15194417  0.48011682  0.10541539     0.23600
C1259       C  0.13359856  0.47094399  0.12324029    -0.12300
C1260       C  0.10997699  0.48350699  0.12876991     0.05000
C1261       C  0.17518372  0.46520924  0.09715896     0.27500
C1262       C  0.17091907  0.44490510  0.08181018    -0.13000
C1263       C  0.19272441  0.43168525  0.07271759     0.05600
C1264       C  0.21899473  0.44024575  0.07611439    -0.09000
C1265       C  0.22336669  0.45982530  0.09230131     0.06400
C1266       C  0.20158449  0.47156933  0.10373015    -0.13300
Br1267     Br  0.14122376  0.44114275  0.14049003    -0.05400
Br1268     Br  0.12043634  0.54841967  0.08819251     0.00200
Br1269     Br  0.18674459  0.40351082  0.05239289     0.00700
Br1270     Br  0.20787842  0.49721394  0.12725172    -0.03700
Br1271     Br  0.08363856  0.46803721  0.15016442     0.00800
Br1272     Br  0.17228304  0.51603101  0.07027371    -0.03000
Br1273     Br  0.13542766  0.43676560  0.07062553    -0.03900
Br1274     Br  0.25902539  0.47204910  0.09637996     0.00100
C1275       C  0.12502687  0.52856108  0.95152842     0.01500
C1276       C  0.12735897  0.51653286  0.97501514     0.04300
C1277       C  0.15076176  0.50388335  0.98075440    -0.11700
C1278       C  0.17146582  0.50236694  0.96276045     0.23600
C1279       C  0.16990618  0.51562724  0.94011276    -0.12300
C1280       C  0.14707739  0.52929557  0.93490567     0.05000
C1281       C  0.19376780  0.48551083  0.96728121     0.27500
C1282       C  0.21870755  0.49404608  0.97560501    -0.13000
C1283       C  0.23766891  0.47778440  0.98487019     0.05600
C1284       C  0.23100041  0.45333714  0.98753225    -0.09000
C1285       C  0.20741147  0.44450745  0.97653293     0.06400
C1286       C  0.18896727  0.46058153  0.96604935    -0.13300
Br1287     Br  0.19801359  0.51345643  0.91532783    -0.05400
Br1288     Br  0.09774525  0.51468904  0.99834951     0.00200
Br1289     Br  0.27155587  0.48908269  0.99727150     0.00700
Br1290     Br  0.15574442  0.44865991  0.95262895    -0.03700
Br1291     Br  0.14563690  0.54864536  0.90458707     0.00800
Br1292     Br  0.15366717  0.48691730  0.01256918    -0.03000
Br1293     Br  0.22566403  0.52802522  0.97736277    -0.03900
Br1294     Br  0.19863753  0.41085571  0.97905545     0.00100
C1295       C  0.01868950  0.44056219  0.78296687     0.01500
C1296       C  0.03520186  0.46061473  0.77837899     0.04300
C1297       C  0.04616473  0.47348329  0.79880160    -0.11700
C1298       C  0.03934212  0.46716948  0.82388279     0.23600
C1299       C  0.02504209  0.44565931  0.82842912    -0.12300
C1300       C  0.01524910  0.43221156  0.80799986     0.05000
C1301       C  0.04689680  0.48292498  0.84550788     0.27500
C1302       C  0.06599833  0.47495748  0.86296963    -0.13000
C1303       C  0.07025877  0.48754831  0.88555964     0.05600
C1304       C  0.05747471  0.50989820  0.88979504    -0.09000
C1305       C  0.03959593  0.51870829  0.87139674     0.06400
C1306       C  0.03401068  0.50510386  0.84956574    -0.13300
Br1307     Br  0.01709781  0.43527337  0.86258810    -0.05400
Br1308     Br  0.04061109  0.47164751  0.74419422     0.00200
Br1309     Br  0.09229146  0.47246111  0.91106734     0.00700
Br1310     Br  0.00938063  0.51754946  0.82484353    -0.03700
Br1311     Br  0.99392028  0.40385393  0.81421676     0.00800
Br1312     Br  0.07017542  0.49994120  0.79253654    -0.03000
Br1313     Br  0.08701556  0.44691863  0.85537459    -0.03900
Br1314     Br  0.02365660  0.54996569  0.87513456     0.00100
C1315       C  0.86043603  0.50182311  0.94010908     0.01500
C1316       C  0.84091781  0.51107914  0.95652964     0.04300
C1317       C  0.81931140  0.49660422  0.96418684    -0.11700
C1318       C  0.81715069  0.47270661  0.95572629     0.23600
C1319       C  0.83651500  0.46349486  0.93917438    -0.12300
C1320       C  0.85819683  0.47790402  0.93151763     0.05000
C1321       C  0.79521711  0.45706727  0.96529534     0.27500
C1322       C  0.80047717  0.43979844  0.98419374    -0.13000
C1323       C  0.77931587  0.42732743  0.99574259     0.05600
C1324       C  0.75280137  0.43322263  0.98981244    -0.09000
C1325       C  0.74756180  0.44892273  0.96950929     0.06400
C1326       C  0.76882889  0.46044430  0.95685384    -0.13300
Br1327     Br  0.83322094  0.43105187  0.92695635    -0.05400
Br1328     Br  0.84295570  0.54392334  0.96786292     0.00200
Br1329     Br  0.78631930  0.40331028  0.02122569     0.00700
Br1330     Br  0.76185004  0.48194444  0.92899185    -0.03700
Br1331     Br  0.88553763  0.46409462  0.91041959     0.00800
Br1332     Br  0.79238266  0.50985547  0.98595635    -0.03000
Br1333     Br  0.83637530  0.43469937  0.99600666    -0.03900
Br1334     Br  0.71127300  0.45583740  0.96034919     0.00100
C1335       C  0.91630478  0.52763633  0.87070757     0.01500
C1336       C  0.89661032  0.53250596  0.85240749     0.04300
C1337       C  0.89576138  0.51944270  0.82966384    -0.11700
C1338       C  0.91458779  0.50125292  0.82521842     0.23600
C1339       C  0.93565936  0.49795554  0.84258076    -0.12300
C1340       C  0.93691726  0.51159320  0.86487443     0.05000
C1341       C  0.91267674  0.48533398  0.80263702     0.27500
C1342       C  0.90598882  0.46082973  0.80572328    -0.13000
C1343       C  0.91297574  0.44420614  0.78683580     0.05600
C1344       C  0.92611332  0.45212569  0.76472251    -0.09000
C1345       C  0.92688030  0.47695794  0.75946694     0.06400
C1346       C  0.92165939  0.49354375  0.77883452    -0.13300
Br1347     Br  0.96151779  0.47311420  0.83704969    -0.05400
Br1348     Br  0.86970797  0.55607913  0.85962085     0.00200
Br1349     Br  0.90917483  0.41030801  0.79303582     0.00700
Br1350     Br  0.93102207  0.52684357  0.77400665    -0.03700
Br1351     Br  0.96543943  0.50649911  0.88868359     0.00800
Br1352     Br  0.86764094  0.52522976  0.80565497    -0.03000
Br1353     Br  0.89077230  0.44969557  0.83720784    -0.03900
Br1354     Br  0.94133322  0.48772885  0.72759010     0.00100
C1355       C  0.94704477  0.41199714  0.24910030     0.01500
C1356       C  0.92182068  0.42256268  0.25189000     0.04300
C1357       C  0.91025994  0.43482759  0.23137116    -0.11700
C1358       C  0.92451456  0.43723567  0.20850410     0.23600
C1359       C  0.94773731  0.42357769  0.20465020    -0.12300
C1360       C  0.95856954  0.41045232  0.22487518     0.05000
C1361       C  0.91705888  0.45597622  0.18982316     0.27500
C1362       C  0.90590316  0.44950931  0.16642862    -0.13000
C1363       C  0.90150059  0.46713774  0.14783109     0.05600
C1364       C  0.90778194  0.49140935  0.15277061    -0.09000
C1365       C  0.91818178  0.49797103  0.17638302     0.06400
C1366       C  0.92241232  0.48038523  0.19505436    -0.13300
Br1367     Br  0.96645095  0.42495100  0.17269879    -0.05400
Br1368     Br  0.90462215  0.42226691  0.28443948     0.00200
Br1369     Br  0.88696675  0.45789413  0.11548262     0.00700
Br1370     Br  0.93376052  0.49023349  0.22831387    -0.03700
Br1371     Br  0.99104525  0.39263878  0.22048849     0.00800
Br1372     Br  0.87612883  0.45013770  0.23505158    -0.03000
Br1373     Br  0.89530866  0.41668081  0.16054862    -0.03900
Br1374     Br  0.92500583  0.53132025  0.18365008     0.00100
C1375       C  0.83451447  0.52425722  0.10594854     0.01500
C1376       C  0.82776800  0.51517890  0.08195426     0.04300
C1377       C  0.80342927  0.50300781  0.07866493    -0.11700
C1378       C  0.78560278  0.50019780  0.09909748     0.23600
C1379       C  0.79087610  0.51164658  0.12212826    -0.12300
C1380       C  0.81526864  0.52376912  0.12551937     0.05000
C1381       C  0.76288973  0.48327442  0.09655726     0.27500
C1382       C  0.73819112  0.49147906  0.08753002    -0.13000
C1383       C  0.72010224  0.47512340  0.07679490     0.05600
C1384       C  0.72668689  0.45068282  0.07533609    -0.09000
C1385       C  0.74919544  0.44209975  0.08836805     0.06400
C1386       C  0.76765325  0.45843780  0.09851445    -0.13300
Br1387     Br  0.76554276  0.50900884  0.14944134    -0.05400
Br1388     Br  0.85284853  0.51674691  0.05430613     0.00200
Br1389     Br  0.68848478  0.48640678  0.06006648     0.00700
Br1390     Br  0.80123639  0.44711807  0.11158877    -0.03700
Br1391     Br  0.82309762  0.53853659  0.15754092     0.00800
Br1392     Br  0.79553803  0.48784115  0.04691207    -0.03000
Br1393     Br  0.73083641  0.52531822  0.08683340    -0.03900
Br1394     Br  0.75688301  0.40825700  0.08827563     0.00100
C1395       C  0.03691290  0.67653429  0.18017195     0.01500
C1396       C  0.02730256  0.70011605  0.18178860     0.04300
C1397       C  0.02889709  0.71271535  0.20473789    -0.11700
C1398       C  0.03953124  0.70164319  0.22662539     0.23600
C1399       C  0.04833056  0.67770014  0.22517742    -0.12300
C1400       C  0.04681386  0.66517913  0.20206986     0.05000
C1401       C  0.04079634  0.71542371  0.25083974     0.27500
C1402       C  0.05776478  0.73562499  0.25280718    -0.13000
C1403       C  0.05090642  0.75441510  0.26930935     0.05600
C1404       C  0.02901069  0.75169161  0.28579103    -0.09000
C1405       C  0.01767302  0.72870611  0.28883207     0.06400
C1406       C  0.02176756  0.71125163  0.27008772    -0.13300
Br1407     Br  0.06485295  0.66287439  0.25411381    -0.05400
Br1408     Br  0.01423410  0.71586153  0.15166627     0.00200
Br1409     Br  0.06742420  0.78546929  0.26558689     0.00700
Br1410     Br  0.99855518  0.68366312  0.26887568    -0.03700
Br1411     Br  0.06002490  0.63288840  0.19966298     0.00800
Br1412     Br  0.01821947  0.74584130  0.20546397    -0.03000
Br1413     Br  0.08825135  0.73865399  0.23083870    -0.03900
Br1414     Br  0.99151712  0.72382954  0.31507103     0.00100
C1415       C  0.21592433  0.75875345  0.08993136     0.01500
C1416       C  0.22041676  0.73388316  0.09135023     0.04300
C1417       C  0.20016997  0.71834054  0.10002941    -0.11700
C1418       C  0.17564155  0.72776071  0.10820670     0.23600
C1419       C  0.17286482  0.75281185  0.11069869    -0.12300
C1420       C  0.19310386  0.76828674  0.10165905     0.05000
C1421       C  0.15217805  0.71155016  0.11161389     0.27500
C1422       C  0.13285934  0.70983483  0.09232286    -0.13000
C1423       C  0.11031448  0.69487602  0.09541728     0.05600
C1424       C  0.10681384  0.68162966  0.11808658    -0.09000
C1425       C  0.12732928  0.68203463  0.13649844     0.06400
C1426       C  0.14959391  0.69724708  0.13346515    -0.13300
Br1427     Br  0.14042724  0.76581009  0.12444362    -0.05400
Br1428     Br  0.25295340  0.72114951  0.07768637     0.00200
Br1429     Br  0.08402379  0.69377487  0.06882220     0.00700
Br1430     Br  0.17626404  0.69913630  0.15964334    -0.03700
Br1431     Br  0.18850755  0.80252961  0.10257456     0.00800
Br1432     Br  0.20501037  0.68412367  0.09808163    -0.03000
Br1433     Br  0.13696364  0.72874007  0.06185545    -0.03900
Br1434     Br  0.12557749  0.66120435  0.16580639     0.00100
C1435       C  0.91844749  0.70399527  0.14991806     0.01500
C1436       C  0.90952940  0.72766319  0.14546307     0.04300
C1437       C  0.91369185  0.74552037  0.16362948    -0.11700
C1438       C  0.92884595  0.74042854  0.18525189     0.23600
C1439       C  0.93969224  0.71732367  0.18871378    -0.12300
C1440       C  0.93461774  0.69912258  0.17101722     0.05000
C1441       C  0.93367299  0.75922745  0.20441932     0.27500
C1442       C  0.95393669  0.77642713  0.20054825    -0.13000
C1443       C  0.96279874  0.79034769  0.22096523     0.05600
C1444       C  0.95235499  0.78618819  0.24536082    -0.09000
C1445       C  0.92965957  0.77147348  0.24835187     0.06400
C1446       C  0.92000686  0.75829320  0.22768685    -0.13300
Br1447     Br  0.95965555  0.71006113  0.21881132    -0.05400
Br1448     Br  0.89251924  0.73599388  0.11389519     0.00200
Br1449     Br  0.99188971  0.81271981  0.21664031     0.00700
Br1450     Br  0.88966762  0.73724043  0.23162636    -0.03700
Br1451     Br  0.94892200  0.66746563  0.17636770     0.00800
Br1452     Br  0.89674855  0.77631075  0.16005315    -0.03000
Br1453     Br  0.97138231  0.77910281  0.16808852    -0.03900
Br1454     Br  0.91419023  0.76685855  0.28139741     0.00100
C1455       C  0.83888036  0.67239929  0.11154066     0.01500
C1456       C  0.82143544  0.67425462  0.13245638     0.04300
C1457       C  0.79724812  0.68671701  0.13012686    -0.11700
C1458       C  0.79013805  0.69683715  0.10673818     0.23600
C1459       C  0.80563067  0.69207250  0.08508142    -0.12300
C1460       C  0.83026785  0.68032773  0.08750994     0.05000
C1461       C  0.76980357  0.71600620  0.10534989     0.27500
C1462       C  0.74410807  0.71114797  0.09601811    -0.13000
C1463       C  0.72819483  0.73013611  0.08723325     0.05600
C1464       C  0.73868847  0.75360834  0.08637605    -0.09000
C1465       C  0.76265854  0.75876574  0.09901379     0.06400
C1466       C  0.77805207  0.73997323  0.10889761    -0.13300
Br1467     Br  0.79414613  0.70378695  0.05243412    -0.05400
Br1468     Br  0.83174620  0.66132716  0.16486230     0.00200
Br1469     Br  0.69368433  0.72381959  0.07279417     0.00700
Br1470     Br  0.81211838  0.74682761  0.12419361    -0.03700
Br1471     Br  0.85355224  0.67851369  0.05854018     0.00800
Br1472     Br  0.77494945  0.69193006  0.15926942    -0.03000
Br1473     Br  0.73240736  0.67844546  0.09210688    -0.03900
Br1474     Br  0.77637499  0.79111626  0.09875326     0.00100
C1475       C  0.91685975  0.67328393  0.87388843     0.01500
C1476       C  0.89951072  0.66448697  0.85509456     0.04300
C1477       C  0.89868711  0.67542714  0.83100434    -0.11700
C1478       C  0.91569711  0.69492316  0.82542544     0.23600
C1479       C  0.93412121  0.70284161  0.84387034    -0.12300
C1480       C  0.93475211  0.69195995  0.86791827     0.05000
C1481       C  0.91404728  0.70801625  0.80082784     0.27500
C1482       C  0.92684193  0.69893041  0.77918787    -0.13000
C1483       C  0.93477899  0.71478265  0.75975478     0.05600
C1484       C  0.93164601  0.73972150  0.76294856    -0.09000
C1485       C  0.91416195  0.74792876  0.78190497     0.06400
C1486       C  0.90472852  0.73181442  0.80049968    -0.13300
Br1487     Br  0.95714076  0.73001340  0.83711379    -0.05400
Br1488     Br  0.87570467  0.63829171  0.86306115     0.00200
Br1489     Br  0.95600968  0.70340251  0.73192486     0.00700
Br1490     Br  0.88232750  0.74288425  0.82765483    -0.03700
Br1491     Br  0.95826730  0.70426702  0.89369378     0.00800
Br1492     Br  0.87250899  0.66530351  0.80659244    -0.03000
Br1493     Br  0.93659362  0.66560261  0.77754395    -0.03900
Br1494     Br  0.90800760  0.78178659  0.78580949     0.00100
C1495       C  0.86047106  0.69624681  0.94422914     0.01500
C1496       C  0.86317790  0.70937869  0.96692254     0.04300
C1497       C  0.84225202  0.72409622  0.97543872    -0.11700
C1498       C  0.81915184  0.72721613  0.96059649     0.23600
C1499       C  0.81682808  0.71483690  0.93752123    -0.12300
C1500       C  0.83680735  0.69873919  0.92990456     0.05000
C1501       C  0.79613375  0.74112916  0.97074332     0.27500
C1502       C  0.77335890  0.72871386  0.97952500    -0.13000
C1503       C  0.75260473  0.74121373  0.99136529     0.05600
C1504       C  0.75562044  0.76573201  0.99729326    -0.09000
C1505       C  0.77795081  0.77839715  0.98780248     0.06400
C1506       C  0.79756228  0.76630803  0.97357218    -0.13300
Br1507     Br  0.78567370  0.71936936  0.91665587    -0.05400
Br1508     Br  0.89577512  0.70825303  0.98622068     0.00200
Br1509     Br  0.72088488  0.72417270  0.00191102     0.00700
Br1510     Br  0.82723770  0.78391837  0.95936628    -0.03700
Br1511     Br  0.83018700  0.67855469  0.90099832     0.00800
Br1512     Br  0.84471419  0.73904670  0.00822658    -0.03000
Br1513     Br  0.77183758  0.69411013  0.97818379    -0.03900
Br1514     Br  0.78316637  0.81156557  0.99663863     0.00100
C1515       C  0.20127762  0.77363952  0.00126382     0.01500
C1516       C  0.17455015  0.78045828  0.00504140     0.04300
C1517       C  0.15400988  0.76797330  0.99287281    -0.11700
C1518       C  0.16025910  0.75006688  0.97521890     0.23600
C1519       C  0.18701666  0.74602343  0.96838923    -0.12300
C1520       C  0.20762764  0.75727602  0.98196994     0.05000
C1521       C  0.13907890  0.73346348  0.96664467     0.27500
C1522       C  0.13679945  0.71055230  0.97790646    -0.13000
C1523       C  0.11652237  0.69470974  0.97025103     0.05600
C1524       C  0.09756329  0.70225695  0.95224313    -0.09000
C1525       C  0.09889774  0.72583984  0.94236561     0.06400
C1526       C  0.12029751  0.74095452  0.94863257    -0.13300
Br1527     Br  0.19518762  0.72325066  0.94221564    -0.05400
Br1528     Br  0.16609270  0.80477798  0.02961298     0.00200
Br1529     Br  0.11592465  0.66243282  0.98363975     0.00700
Br1530     Br  0.12429152  0.77172664  0.93216466    -0.03700
Br1531     Br  0.24409849  0.74812803  0.97617690     0.00800
Br1532     Br  0.11752051  0.77317737  0.00296590    -0.03000
Br1533     Br  0.16169690  0.70080933  0.00376660    -0.03900
Br1534     Br  0.07041273  0.73827706  0.92171401     0.00100
C1535       C  0.05590860  0.67039839  0.87701953     0.01500
C1536       C  0.03111209  0.66936208  0.86439819     0.04300
C1537       C  0.02807030  0.68155339  0.84106252    -0.11700
C1538       C  0.04874277  0.69648547  0.83180691     0.23600
C1539       C  0.07429274  0.69433466  0.84215879    -0.12300
C1540       C  0.07816622  0.67973047  0.86351515     0.05000
C1541       C  0.04248206  0.71728768  0.81514356     0.27500
C1542       C  0.04750013  0.71692574  0.78889947    -0.13000
C1543       C  0.03829502  0.73584999  0.77352010     0.05600
C1544       C  0.02343198  0.75458150  0.78422121    -0.09000
C1545       C  0.02226520  0.75677337  0.81064051     0.06400
C1546       C  0.03174982  0.73814428  0.82612334    -0.13300
Br1547     Br  0.10330259  0.71343396  0.82888628    -0.05400
Br1548     Br  0.00102965  0.65271339  0.87901434     0.00200
Br1549     Br  0.04352954  0.73538931  0.73743664     0.00700
Br1550     Br  0.02909625  0.74078473  0.86236936    -0.03700
Br1551     Br  0.11404142  0.67330983  0.87468737     0.00800
Br1552     Br  0.99578485  0.67834490  0.82183378    -0.03000
Br1553     Br  0.06572535  0.69023253  0.77393484    -0.03900
Br1554     Br  0.00498340  0.78423197  0.82516104     0.00100
loop_ 
_geom_bond_atom_site_label_1 
_geom_bond_atom_site_label_2 
_geom_bond_distance 
_geom_bond_site_symmetry_2 
_ccdc_geom_bond_type 
C1            N2   1.351       .  A
C1            N6   1.346       .  A
C1         C1524   1.478       .  S
N2            C3   1.361       .  A
C3            N4   1.372       .  A
C3           C51   1.481       .  S
N4            C5   1.371       .  A
C5            N6   1.353       .  A
C5         C1535   1.498       .  S
C7            N8   1.350       .  A
C7           N12   1.358       .  A
C7         C1495   1.494       .  S
N8            C9   1.354       .  A
C9           N10   1.368       .  A
C9         C1475   1.474       .  S
N10          C11   1.368       .  A
C11          N12   1.366       .  A
C11          C80   1.489       .  S
C13          N14   1.351       .  A
C13          N18   1.361       .  A
C13        C1435   1.477       .  S
N14          C15   1.349       .  A
C15          N16   1.361       .  A
C15        C1455   1.482       .  S
N16          C17   1.368       .  A
C17          N18   1.363       .  A
C17          C71   1.472       .  S
C19          N20   1.349       .  A
C19          N24   1.368       .  A
C19        C1395   1.475       .  S
N20          C21   1.347       .  A
C21          N22   1.360       .  A
C21        C1424   1.491       .  S
N22          C23   1.368       .  A
C23          N24   1.370       .  A
C23          C60   1.488       .  S
C25          N26   1.363       .  A
C25          N30   1.349       .  A
C25        C1364   1.470       .  S
N26          C27   1.363       .  A
C27          N28   1.368       .  A
C27          C77   1.475       .  S
N28          C29   1.361       .  A
C29          N30   1.348       .  A
C29        C1375   1.479       .  S
C31          N32   1.348       .  A
C31          N36   1.354       .  A
C31        C1315   1.480       .  S
N32          C33   1.353       .  A
C33          N34   1.369       .  A
C33        C1335   1.476       .  S
N34          C35   1.368       .  A
C35          N36   1.362       .  A
C35          C74   1.481       .  S
C37          N38   1.356       .  A
C37          N42   1.349       .  A
C37        C1275   1.480       .  S
N38          C39   1.363       .  A
C39          N40   1.366       .  A
C39          C57   1.476       .  S
N40          C41   1.368       .  A
C41          N42   1.352       .  A
C41        C1304   1.492       .  S
C43          N44   1.353       .  A
C43          N48   1.368       .  A
C43        C1244   1.481       .  S
N44          C45   1.351       .  A
C45          N46   1.364       .  A
C45        C1255   1.500       .  S
N46          C47   1.371       .  A
C47          N48   1.368       .  A
C47          C54   1.496       .  S
O49         Zr61   2.447   1_556  S
O49          C51   1.291       .  A
O50         Zr87   2.442   1_455  S
O50          C51   1.289       .  A
O52         Zr64   2.445       .  S
O52          C54   1.289       .  A
O53         Zr88   2.483   1_455  S
O53          C54   1.298       .  A
O55         Zr64   2.422   1_556  S
O55          C57   1.285       .  A
O56         Zr87   2.468   1_455  S
O56          C57   1.294       .  A
O58         Zr61   2.443       .  S
O58          C60   1.289       .  A
O59         Zr88   2.474   1_455  S
O59          C60   1.296       .  A
Zr61         O62   2.434       .  S
Zr61         O63   2.435       .  S
Zr61         O67   2.364       .  S
Zr61         O68   2.370       .  S
Zr61         O91   2.373   1_455  S
Zr61         O93   2.368   1_455  S
O62         H105   0.990       .  S
O63         H104   0.990       .  S
O63         H108   0.990   1_455  S
Zr64         O65   2.437       .  S
Zr64         O66   2.436       .  S
Zr64         O68   2.361       .  S
Zr64         O67   2.374       .  S
Zr64         O92   2.378   1_455  S
Zr64         O94   2.370   1_455  S
O65         H106   0.990       .  S
O65         H109   0.990       .  S
O66          H99   0.990       .  S
O67         Zr87   2.398   1_454  S
O68         Zr88   2.396   1_455  S
O68          H95   0.966       .  S
O69         Zr81   2.421       .  S
O69          C71   1.282       .  A
O70         Zr88   2.470       .  S
O70          C71   1.295       .  A
O72         Zr84   2.433   1_556  S
O72          C74   1.287       .  A
O73         Zr87   2.452       .  S
O73          C74   1.290       .  A
O75         Zr84   2.422       .  S
O75          C77   1.284       .  A
O76         Zr88   2.480       .  S
O76          C77   1.297       .  A
O78         Zr81   2.423   1_556  S
O78          C80   1.285       .  A
O79         Zr87   2.480       .  S
O79          C80   1.296       .  A
Zr81         O82   2.437       .  S
Zr81         O83   2.436       .  S
Zr81         O89   2.357       .  S
Zr81         O90   2.366       .  S
Zr81         O93   2.368       .  S
Zr81         O91   2.375       .  S
O82         H102   0.990       .  S
O82         H107   0.990       .  S
O83         H103   0.990       .  S
Zr84         O85   2.433       .  S
Zr84         O86   2.434       .  S
Zr84         O90   2.366       .  S
Zr84         O89   2.373       .  S
Zr84         O94   2.372       .  S
Zr84         O92   2.364       .  S
O85         H101   0.990       .  S
O86         H100   0.990       .  S
O86         H110   0.990       .  S
Zr87         O90   2.391   1_556  S
Zr87         O92   2.401   1_556  S
Zr87         O93   2.400   1_556  S
Zr88         O89   2.400       .  S
Zr88         O91   2.401       .  S
Zr88         O94   2.397       .  S
O89          H97   0.964       .  S
O92          H96   0.963   1_554  S
O93          H98   0.974   1_554  S
C111        N112   1.362       .  A
C111        N116   1.351   1_545  A
C111       C1204   1.498       .  S
N112        C113   1.367       .  A
C113        N114   1.370   1_545  A
C113        C161   1.492       .  S
N114        C115   1.368       .  A
C115        N116   1.354       .  A
C115       C1224   1.482       .  S
C117        N118   1.346   1_545  A
C117        N122   1.354       .  A
C117       C1175   1.475       .  S
N118        C119   1.350       .  A
C119        N120   1.370       .  A
C119       C1164   1.493       .  S
N120        C121   1.370   1_565  A
C121        N122   1.363       .  A
C121        C190   1.479       .  S
C123        N124   1.353       .  A
C123        N128   1.365       .  A
C123       C1124   1.480       .  S
N124        C125   1.347       .  A
C125        N126   1.361       .  A
C125       C1135   1.491       .  S
N126        C127   1.367       .  A
C127        N128   1.365       .  A
C127        C181   1.481       .  S
C129        N130   1.367       .  A
C129        N134   1.348       .  A
C129       C1084   1.481       .  S
N130        C131   1.369       .  A
C131        N132   1.367       .  A
C131        C170   1.489       .  S
N132        C133   1.362       .  A
C133        N134   1.348       .  A
C133       C1104   1.494       .  S
C135        N136   1.370       .  A
C135        N140   1.351       .  A
C135       C1044   1.489       .  S
N136        C137   1.371       .  A
C137        N138   1.367       .  A
C137        C187   1.485       .  S
N138        C139   1.358       .  A
C139        N140   1.345       .  A
C139       C1064   1.485       .  S
C141        N142   1.354       .  A
C141        N146   1.346   1_545  A
C141       C1004   1.479       .  S
N142        C143   1.363       .  A
C143        N144   1.366   1_545  A
C143        C184   1.482       .  S
N144        C145   1.369       .  A
C145        N146   1.350       .  A
C145       C1024   1.474       .  S
C147        N148   1.350       .  A
C147        N152   1.348   1_545  A
C147        C964   1.474       .  S
N148        C149   1.359       .  A
C149        N150   1.370   1_545  A
C149        C167   1.477       .  S
N150        C151   1.370       .  A
C151        N152   1.356       .  A
C151        C975   1.488       .  S
C153        N154   1.367       .  A
C153        N158   1.355       .  A
C153        C944   1.479       .  S
N154        C155   1.367       .  A
C155        N156   1.366       .  A
C155        C164   1.489       .  S
N156        C157   1.360       .  A
C157        N158   1.351       .  A
C157        C924   1.484       .  S
O159       Zr171   2.456       .  S
O159        C161   1.291       .  A
O160       Zr197   2.463       .  S
O160        C161   1.293       .  A
O162       Zr174   2.447       .  S
O162        C164   1.290       .  A
O163       Zr198   2.470       .  S
O163        C164   1.295       .  A
O165       Zr174   2.441       .  S
O165        C167   1.290       .  A
O166       Zr197   2.445       .  S
O166        C167   1.289       .  A
O168       Zr171   2.462       .  S
O168        C170   1.293       .  A
O169       Zr198   2.454       .  S
O169        C170   1.292       .  A
Zr171       O172   2.434       .  S
Zr171       O173   2.435       .  S
Zr171       O177   2.376       .  S
Zr171       O178   2.370       .  S
Zr171       O201   2.376       .  S
Zr171       O203   2.377       .  S
O172        H215   0.990       .  S
O173        H214   0.990       .  S
O173        H218   0.990       .  S
Zr174       O175   2.436       .  S
Zr174       O176   2.435       .  S
Zr174       O178   2.364       .  S
Zr174       O177   2.369       .  S
Zr174       O202   2.369       .  S
Zr174       O204   2.379       .  S
O175        H216   0.990       .  S
O175        H219   0.990       .  S
O176        H209   0.990       .  S
O177       Zr197   2.398       .  S
O178       Zr198   2.401       .  S
O178        H205   0.963       .  S
O179       Zr191   2.435       .  S
O179        C181   1.286       .  A
O180       Zr198   2.474   1_556  S
O180        C181   1.296       .  A
O182       Zr194   2.422       .  S
O182        C184   1.285       .  A
O183       Zr197   2.469   1_556  S
O183        C184   1.294       .  A
O185       Zr194   2.439       .  S
O185        C187   1.287       .  A
O186       Zr198   2.474   1_556  S
O186        C187   1.295       .  A
O188       Zr191   2.437       .  S
O188        C190   1.287       .  A
O189       Zr197   2.455   1_556  S
O189        C190   1.291       .  A
Zr191       O192   2.437       .  S
Zr191       O193   2.434       .  S
Zr191       O199   2.371       .  S
Zr191       O200   2.365       .  S
Zr191       O203   2.371   1_556  S
Zr191       O201   2.376   1_556  S
O192        H212   0.990       .  S
O192        H217   0.989       .  S
O193        H213   0.990       .  S
Zr194       O195   2.434       .  S
Zr194       O196   2.436   1_556  S
Zr194       O200   2.374       .  S
Zr194       O199   2.362       .  S
Zr194       O204   2.368   1_556  S
Zr194       O202   2.361   1_556  S
O195        H211   0.990       .  S
O196        H210   0.990       .  S
O196        H220   0.990   1_554  S
Zr197       O200   2.393   1_554  S
Zr197       O202   2.400       .  S
Zr197       O203   2.400       .  S
Zr198       O199   2.396   1_554  S
Zr198       O201   2.402       .  S
Zr198       O204   2.397       .  S
O199        H207   0.967       .  S
O202        H206   0.970       .  S
O203        H208   0.960       .  S
C221        N222   1.359       .  A
C221        N226   1.346   1_545  A
C221        C884   1.483       .  S
N222        C223   1.367       .  A
C223        N224   1.370       .  A
C223        C277   1.484       .  S
N224        C225   1.368   1_545  A
C225        N226   1.350       .  A
C225        C895   1.479       .  S
C227        N228   1.359       .  A
C227        N232   1.354   1_545  A
C227        C855   1.499       .  S
N228        C229   1.362       .  A
C229        N230   1.365   1_545  A
C229        C294   1.483       .  S
N230        C231   1.365       .  A
C231        N232   1.356       .  A
C231        C844   1.481       .  S
C233        N234   1.353       .  A
C233        N238   1.367       .  A
C233        C795   1.494       .  S
N234        C235   1.349       .  A
C235        N236   1.357       .  A
C235        C824   1.489       .  S
N236        C237   1.365       .  A
C237        N238   1.368       .  A
C237        C297   1.479       .  S
C239        N240   1.349       .  A
C239        N244   1.369       .  A
C239        C755   1.483       .  S
N240        C241   1.345       .  A
C241        N242   1.361       .  A
C241        C784   1.495       .  S
N242        C243   1.369       .  A
C243        N244   1.371       .  A
C243        C274   1.492       .  S
C245        N246   1.361       .  A
C245        N250   1.352       .  A
C245        C724   1.474       .  S
N246        C247   1.361       .  A
C247        N248   1.370       .  A
C247        C291   1.476       .  S
N248        C249   1.364       .  A
C249        N250   1.352       .  A
C249        C735   1.496       .  S
C251        N252   1.358       .  A
C251        N256   1.345   1_545  A
C251        C684   1.484       .  S
N252        C253   1.368       .  A
C253        N254   1.369   1_545  A
C253        C300   1.485       .  S
N254        C255   1.369       .  A
C255        N256   1.351       .  A
C255        C704   1.478       .  S
C257        N258   1.359       .  A
C257        N262   1.347   1_545  A
C257        C635   1.484       .  S
N258        C259   1.368       .  A
C259        N260   1.368   1_545  A
C259        C271   1.487       .  S
N260        C261   1.367       .  A
C261        N262   1.350       .  A
C261        C655   1.475       .  S
C263        N264   1.354       .  A
C263        N268   1.370       .  A
C263        C604   1.480       .  S
N264        C265   1.350       .  A
C265        N266   1.361       .  A
C265        C624   1.489       .  S
N266        C267   1.368       .  A
C267        N268   1.370       .  A
C267        C280   1.496       .  S
O269       Zr281   2.436       .  S
O269        C271   1.288       .  A
O270       Zr307   2.470   1_455  S
O270        C271   1.295       .  A
O272       Zr284   2.449       .  S
O272        C274   1.290       .  A
O273       Zr308   2.470   1_455  S
O273        C274   1.295       .  A
O275       Zr284   2.434       .  S
O275        C277   1.287       .  A
O276       Zr307   2.477   1_455  S
O276        C277   1.296       .  A
O278       Zr281   2.440       .  S
O278        C280   1.289       .  A
O279       Zr308   2.489   1_455  S
O279        C280   1.299       .  A
Zr281       O282   2.435       .  S
Zr281       O283   2.435       .  S
Zr281       O287   2.370       .  S
Zr281       O288   2.370       .  S
Zr281       O311   2.375   1_455  S
Zr281       O313   2.373   1_455  S
O282        H325   0.990       .  S
O283        H324   0.990       .  S
O283        H328   0.990   1_455  S
Zr284       O285   2.435       .  S
Zr284       O286   2.435       .  S
Zr284       O288   2.365       .  S
Zr284       O287   2.377       .  S
Zr284       O312   2.375   1_455  S
Zr284       O314   2.371   1_455  S
O285        H326   0.990       .  S
O285        H329   0.990       .  S
O286        H319   0.990       .  S
O287       Zr307   2.396   1_455  S
O288       Zr308   2.394   1_455  S
O288        H315   0.965       .  S
O289       Zr301   2.418       .  S
O289        C291   1.282       .  A
O290       Zr308   2.481       .  S
O290        C291   1.298       .  A
O292       Zr304   2.449       .  S
O292        C294   1.290       .  A
O293       Zr307   2.451       .  S
O293        C294   1.292       .  A
O295       Zr304   2.448       .  S
O295        C297   1.290       .  A
O296       Zr308   2.458       .  S
O296        C297   1.293       .  A
O298       Zr301   2.413       .  S
O298        C300   1.283       .  A
O299       Zr307   2.489       .  S
O299        C300   1.298       .  A
Zr301       O302   2.436       .  S
Zr301       O303   2.434       .  S
Zr301       O309   2.354       .  S
Zr301       O310   2.360       .  S
Zr301       O313   2.365       .  S
Zr301       O311   2.377       .  S
O302        H322   0.990       .  S
O302        H327   0.989       .  S
O303        H323   0.990       .  S
Zr304       O305   2.434       .  S
Zr304       O306   2.435       .  S
Zr304       O310   2.370       .  S
Zr304       O309   2.371       .  S
Zr304       O314   2.373       .  S
Zr304       O312   2.371       .  S
O305        H321   0.990       .  S
O306        H320   0.990       .  S
O306        H330   0.990       .  S
Zr307       O310   2.392       .  S
Zr307       O312   2.410       .  S
Zr307       O313   2.394       .  S
Zr308       O309   2.400       .  S
Zr308       O311   2.394       .  S
Zr308       O314   2.405       .  S
O309        H317   0.964       .  S
O312        H316   0.954       .  S
O313        H318   0.975       .  S
C331       C1235   1.491       .  S
C331        C332   1.397   1_455  A
C331        C336   1.419       .  A
C332        C333   1.391       .  A
C332        H351   1.084       .  S
C333       C1355   1.484       .  S
C333        C334   1.408       .  A
C334        C335   1.425       .  A
C334        C341   1.403       .  A
C335        C336   1.424   1_655  A
C335        C340   1.419       .  A
C336        C337   1.407       .  A
C337        C338   1.402       .  A
C337        H347   1.083       .  S
C338        C339   1.405       .  A
C338        H348   1.083       .  S
C339        C340   1.427   1_455  A
C339        C346   1.420       .  A
C340        C343   1.423       .  A
C341        C342   1.391       .  A
C341        H349   1.083       .  S
C342        C343   1.404       .  A
C342        H350   1.083       .  S
C343        C344   1.407       .  A
C344        C715   1.481       .  S
C344        C345   1.390       .  A
C345        C346   1.393   1_655  A
C345        H352   1.084       .  S
C346        C595   1.492       .  S
C353        C955   1.488       .  S
C353        C354   1.395       .  A
C353        C358   1.412       .  A
C354        C355   1.397       .  A
C354        H373   1.086       .  S
C355        C915   1.491       .  S
C355        C356   1.419       .  A
C356        C357   1.424       .  A
C356        C363   1.407       .  A
C357        C358   1.425       .  A
C357        C362   1.421       .  A
C358        C359   1.404       .  A
C359        C360   1.393       .  A
C359        H369   1.083       .  S
C360        C361   1.403       .  A
C360        H370   1.083       .  S
C361        C362   1.423       .  A
C361        C368   1.409       .  A
C362        C365   1.427       .  A
C363        C364   1.401       .  A
C363        H371   1.083       .  S
C364        C365   1.405       .  A
C364        H372   1.083       .  S
C365        C366   1.421       .  A
C366        C615   1.493       .  S
C366        C367   1.393       .  A
C367        C368   1.392       .  A
C367        H374   1.087       .  S
C368        C644   1.481       .  S
C375       C1284   1.479   1_554  S
C375        C376   1.392       .  A
C375        C380   1.410       .  A
C376        C377   1.392       .  A
C376        H395   1.087       .  S
C377       C1264   1.489       .  S
C377        C378   1.418       .  A
C378        C379   1.423       .  A
C378        C385   1.406       .  A
C379        C380   1.422       .  A
C379        C384   1.416       .  A
C380        C381   1.405   1_554  A
C381        C382   1.394       .  A
C381        H391   1.083       .  S
C382        C383   1.402   1_556  A
C382        H392   1.083       .  S
C383        C384   1.423       .  A
C383        C390   1.406       .  A
C384        C387   1.424       .  A
C385        C386   1.405       .  A
C385        H393   1.083       .  S
C386        C387   1.407       .  A
C386        H394   1.083       .  S
C387        C388   1.419       .  A
C388        C935   1.485       .  S
C388        C389   1.393       .  A
C389        C390   1.388       .  A
C389        H396   1.088       .  S
C390       C1035   1.479   1_554  S
C397       C1095   1.485       .  S
C397        C398   1.393       .  A
C397        C402   1.416       .  A
C398        C399   1.390       .  A
C398        H417   1.087       .  S
C399       C1195   1.487       .  S
C399        C400   1.415       .  A
C400        C401   1.426       .  A
C400        C407   1.404       .  A
C401        C402   1.425       .  A
C401        C406   1.422       .  A
C402        C403   1.406       .  A
C403        C404   1.400       .  A
C403        H413   1.083       .  S
C404        C405   1.405       .  A
C404        H414   1.083       .  S
C405        C406   1.426       .  A
C405        C412   1.418       .  A
C406        C409   1.424       .  A
C407        C408   1.397       .  A
C407        H415   1.083       .  S
C408        C409   1.406       .  A
C408        H416   1.083       .  S
C409        C410   1.415       .  A
C410        C675   1.487       .  S
C410        C411   1.393       .  A
C411        C412   1.392       .  A
C411        H418   1.087       .  S
C412        C744   1.489       .  S
C419       C1444   1.481       .  S
C419        C420   1.388       .  A
C419        C424   1.407       .  A
C420        C421   1.394   1_655  A
C420        H439   1.085       .  S
C421       C1404   1.486       .  S
C421        C422   1.416       .  A
C422        C423   1.425   1_455  A
C422        C429   1.406       .  A
C423        C424   1.425       .  A
C423        C428   1.417       .  A
C424        C425   1.403       .  A
C425        C426   1.391       .  A
C425        H435   1.083       .  S
C426        C427   1.403       .  A
C426        H436   1.083       .  S
C427        C428   1.423       .  A
C427        C434   1.406       .  A
C428        C431   1.425   1_655  A
C429        C430   1.402       .  A
C429        H437   1.083       .  S
C430        C431   1.406       .  A
C430        H438   1.083       .  S
C431        C432   1.418       .  A
C432        C664   1.488       .  S
C432        C433   1.391   1_455  A
C433        C434   1.389       .  A
C433        H440   1.085       .  S
C434        C695   1.477       .  S
C441       C1055   1.488       .  S
C441        C442   1.393       .  A
C441        C446   1.417       .  A
C442        C443   1.393       .  A
C442        H461   1.087       .  S
C443        C995   1.477       .  S
C443        C444   1.406       .  A
C444        C445   1.420       .  A
C444        C451   1.404       .  A
C445        C446   1.425       .  A
C445        C450   1.416       .  A
C446        C447   1.405       .  A
C447        C448   1.399       .  A
C447        H457   1.083       .  S
C448        C449   1.405       .  A
C448        H458   1.083       .  S
C449        C450   1.420       .  A
C449        C456   1.411       .  A
C450        C453   1.425       .  A
C451        C452   1.394       .  A
C451        H459   1.082       .  S
C452        C453   1.404       .  A
C452        H460   1.083       .  S
C453        C454   1.414       .  A
C454        C875   1.486       .  S
C454        C455   1.393       .  A
C455        C456   1.392       .  A
C455        H462   1.087       .  S
C456        C775   1.479       .  S
C463       C1344   1.490       .  S
C463        C464   1.393       .  A
C463        C468   1.419       .  A
C464        C465   1.388       .  A
C464        H483   1.086       .  S
C465       C1295   1.486   1_655  S
C465        C466   1.415       .  A
C466        C467   1.425       .  A
C466        C473   1.405   1_655  A
C467        C468   1.428       .  A
C467        C472   1.421       .  A
C468        C469   1.406       .  A
C469        C470   1.402       .  A
C469        H479   1.083       .  S
C470        C471   1.406       .  A
C470        H480   1.083       .  S
C471        C472   1.425       .  A
C471        C478   1.416       .  A
C472        C475   1.428   1_655  A
C473        C474   1.400       .  A
C473        H481   1.083       .  S
C474        C475   1.405       .  A
C474        H482   1.083       .  S
C475        C476   1.418       .  A
C476        C764   1.489       .  S
C476        C477   1.390   1_455  A
C477        C478   1.385       .  A
C477        H484   1.088       .  S
C478        C804   1.483       .  S
C485       C1415   1.486       .  S
C485        C486   1.393       .  A
C485        C490   1.417       .  A
C486        C487   1.391       .  A
C486        H505   1.087       .  S
C487       C1515   1.482       .  S
C487        C488   1.408       .  A
C488        C489   1.424       .  A
C488        C495   1.403   1_554  A
C489        C490   1.424       .  A
C489        C494   1.418       .  A
C490        C491   1.406       .  A
C491        C492   1.402       .  A
C491        H501   1.083       .  S
C492        C493   1.405       .  A
C492        H502   1.083       .  S
C493        C494   1.426       .  A
C493        C500   1.418       .  A
C494        C497   1.423       .  A
C495        C496   1.389       .  A
C495        H503   1.082       .  S
C496        C497   1.403   1_556  A
C496        H504   1.083       .  S
C497        C498   1.407       .  A
C498       C1015   1.480   1_554  S
C498        C499   1.390       .  A
C499        C500   1.392       .  A
C499        H506   1.088       .  S
C500        C984   1.486       .  S
C507       C1384   1.479       .  S
C507        C508   1.394       .  A
C507        C512   1.411       .  A
C508        C509   1.391       .  A
C508        H527   1.085       .  S
C509       C1324   1.484   1_554  S
C509        C510   1.410       .  A
C510        C511   1.425       .  A
C510        C517   1.403   1_554  A
C511        C512   1.421       .  A
C511        C516   1.416       .  A
C512        C513   1.406       .  A
C513        C514   1.398       .  A
C513        H523   1.083       .  S
C514        C515   1.404       .  A
C514        H524   1.083       .  S
C515        C516   1.426       .  A
C515        C522   1.417       .  A
C516        C519   1.421       .  A
C517        C518   1.392       .  A
C517        H525   1.083       .  S
C518        C519   1.404   1_556  A
C518        H526   1.083       .  S
C519        C520   1.405       .  A
C520       C1115   1.474   1_554  S
C520        C521   1.389       .  A
C521        C522   1.391       .  A
C521        H528   1.087       .  S
C522       C1075   1.488       .  S
C529       C1484   1.486       .  S
C529        C530   1.394       .  A
C529        C534   1.415       .  A
C530        C531   1.388   1_655  A
C530        H549   1.086       .  S
C531       C1544   1.480       .  S
C531        C532   1.409       .  A
C532        C533   1.424   1_455  A
C532        C539   1.402       .  A
C533        C534   1.423       .  A
C533        C538   1.417       .  A
C534        C535   1.405       .  A
C535        C536   1.399       .  A
C535        H545   1.083       .  S
C536        C537   1.405       .  A
C536        H546   1.083       .  S
C537        C538   1.426       .  A
C537        C544   1.415       .  A
C538        C541   1.424       .  A
C539        C540   1.394       .  A
C539        H547   1.083       .  S
C540        C541   1.405   1_455  A
C540        H548   1.082       .  S
C541        C542   1.410       .  A
C542        C904   1.483   1_655  S
C542        C543   1.395       .  A
C543        C544   1.392       .  A
C543        H550   1.087       .  S
C544        C835   1.489       .  S
C551       C1144   1.491       .  S
C551        C552   1.395       .  A
C551        C556   1.415       .  A
C552        C553   1.398       .  A
C552        H571   1.086       .  S
C553       C1184   1.492       .  S
C553        C554   1.415       .  A
C554        C555   1.425       .  A
C554        C561   1.405       .  A
C555        C556   1.424       .  A
C555        C560   1.420       .  A
C556        C557   1.405       .  A
C557        C558   1.397       .  A
C557        H567   1.083       .  S
C558        C559   1.405       .  A
C558        H568   1.083       .  S
C559        C560   1.424       .  A
C559        C566   1.415       .  A
C560        C563   1.423       .  A
C561        C562   1.396       .  A
C561        H569   1.082       .  S
C562        C563   1.404       .  A
C562        H570   1.083       .  S
C563        C564   1.412       .  A
C564        C864   1.484       .  S
C564        C565   1.392       .  A
C565        C566   1.396       .  A
C565        H572   1.087       .  S
C566        C815   1.489       .  S
C573       C1504   1.494   1_554  S
C573        C574   1.393       .  A
C573        C578   1.419       .  A
C574        C575   1.393       .  A
C574        H593   1.086       .  S
C575       C1464   1.480       .  S
C575        C576   1.410       .  A
C576        C577   1.422       .  A
C576        C583   1.406       .  A
C577        C578   1.428       .  A
C577        C582   1.420       .  A
C578        C579   1.405   1_554  A
C579        C580   1.398       .  A
C579        H589   1.083       .  S
C580        C581   1.405   1_556  A
C580        H590   1.083       .  S
C581        C582   1.422       .  A
C581        C588   1.411       .  A
C582        C585   1.429       .  A
C583        C584   1.397       .  A
C583        H591   1.083       .  S
C584        C585   1.403       .  A
C584        H592   1.083       .  S
C585        C586   1.416       .  A
C586       C1215   1.490       .  S
C586        C587   1.390       .  A
C587        C588   1.388       .  A
C587        H594   1.087       .  S
C588       C1155   1.477   1_554  S
C595        C596   1.411       .  A
C595        C600   1.411       .  A
C596        C597   1.412       .  A
C596       Br608   1.925   1_455  S
C597        C598   1.411       .  A
C597       Br612   1.927       .  S
C598        C601   1.501       .  S
C598        C599   1.413       .  A
C599        C600   1.413       .  A
C599       Br607   1.928       .  S
C600       Br611   1.926       .  S
C601        C602   1.412       .  A
C601        C606   1.414       .  A
C602        C603   1.416       .  A
C602       Br613   1.926       .  S
C603        C604   1.411       .  A
C603       Br609   1.926       .  S
C604        C605   1.407       .  A
C605        C606   1.406       .  A
C605       Br614   1.934       .  S
C606       Br610   1.923       .  S
C615        C616   1.415       .  A
C615        C620   1.411       .  A
C616        C617   1.411       .  A
C616       Br628   1.929       .  S
C617        C618   1.410       .  A
C617       Br632   1.929       .  S
C618        C621   1.496       .  S
C618        C619   1.411       .  A
C619        C620   1.411       .  A
C619       Br627   1.928       .  S
C620       Br631   1.928       .  S
C621        C622   1.413       .  A
C621        C626   1.409       .  A
C622        C623   1.411       .  A
C622       Br633   1.932       .  S
C623        C624   1.412       .  A
C623       Br629   1.931       .  S
C624        C625   1.415       .  A
C625        C626   1.413       .  A
C625       Br634   1.930       .  S
C626       Br630   1.928       .  S
C635        C636   1.412       .  A
C635        C640   1.419       .  A
C636        C637   1.410       .  A
C636       Br648   1.930       .  S
C637        C638   1.413       .  A
C637       Br652   1.932       .  S
C638        C641   1.484       .  S
C638        C639   1.404       .  A
C639        C640   1.406       .  A
C639       Br647   1.930   1_545  S
C640       Br651   1.935   1_545  S
C641        C642   1.410       .  A
C641        C646   1.409       .  A
C642        C643   1.407       .  A
C642       Br653   1.927       .  S
C643        C644   1.409       .  A
C643       Br649   1.927       .  S
C644        C645   1.407       .  A
C645        C646   1.405       .  A
C645       Br654   1.926       .  S
C646       Br650   1.928       .  S
C655        C656   1.413       .  A
C655        C660   1.408       .  A
C656        C657   1.412       .  A
C656       Br668   1.928       .  S
C657        C658   1.408       .  A
C657       Br672   1.926       .  S
C658        C661   1.493       .  S
C658        C659   1.411       .  A
C659        C660   1.407       .  A
C659       Br667   1.920   1_455  S
C660       Br671   1.934   1_455  S
C661        C662   1.410       .  A
C661        C666   1.409       .  A
C662        C663   1.411       .  A
C662       Br673   1.930       .  S
C663        C664   1.412       .  A
C663       Br669   1.929       .  S
C664        C665   1.413       .  A
C665        C666   1.410       .  A
C665       Br674   1.928   1_455  S
C666       Br670   1.926       .  S
C675        C676   1.409       .  A
C675        C680   1.410       .  A
C676        C677   1.410       .  A
C676       Br688   1.930       .  S
C677        C678   1.414       .  A
C677       Br692   1.931       .  S
C678        C681   1.494       .  S
C678        C679   1.411       .  A
C679        C680   1.408       .  A
C679       Br687   1.929       .  S
C680       Br691   1.931       .  S
C681        C682   1.411       .  A
C681        C686   1.413       .  A
C682        C683   1.411       .  A
C682       Br693   1.928   1_545  S
C683        C684   1.413       .  A
C683       Br689   1.930   1_545  S
C684        C685   1.413       .  A
C685        C686   1.408       .  A
C685       Br694   1.930       .  S
C686       Br690   1.933       .  S
C695        C696   1.405       .  A
C695        C700   1.406       .  A
C696        C697   1.404       .  A
C696       Br708   1.931       .  S
C697        C698   1.418       .  A
C697       Br712   1.934       .  S
C698        C701   1.492       .  S
C698        C699   1.413       .  A
C699        C700   1.408       .  A
C699       Br707   1.927       .  S
C700       Br711   1.926       .  S
C701        C702   1.421       .  A
C701        C706   1.405       .  A
C702        C703   1.413       .  A
C702       Br713   1.933       .  S
C703        C704   1.406       .  A
C703       Br709   1.928       .  S
C704        C705   1.414       .  A
C705        C706   1.401       .  A
C705       Br714   1.934   1_565  S
C706       Br710   1.932       .  S
C715        C716   1.409       .  A
C715        C720   1.408       .  A
C716        C717   1.405       .  A
C716       Br728   1.929       .  S
C717        C718   1.410       .  A
C717       Br732   1.931       .  S
C718        C721   1.485       .  S
C718        C719   1.410       .  A
C719        C720   1.406       .  A
C719       Br727   1.927       .  S
C720       Br731   1.929       .  S
C721        C722   1.406       .  A
C721        C726   1.415       .  A
C722        C723   1.404       .  A
C722       Br733   1.929       .  S
C723        C724   1.412       .  A
C723       Br729   1.931       .  S
C724        C725   1.407       .  A
C725        C726   1.409       .  A
C725       Br734   1.931       .  S
C726       Br730   1.930       .  S
C735        C736   1.419       .  A
C735        C740   1.415       .  A
C736        C737   1.412       .  A
C736       Br748   1.931       .  S
C737        C738   1.405       .  A
C737       Br752   1.926       .  S
C738        C741   1.494       .  S
C738        C739   1.408       .  A
C739        C740   1.411       .  A
C739       Br747   1.927       .  S
C740       Br751   1.924       .  S
C741        C742   1.410       .  A
C741        C746   1.412       .  A
C742        C743   1.413       .  A
C742       Br753   1.926       .  S
C743        C744   1.413       .  A
C743       Br749   1.928       .  S
C744        C745   1.409       .  A
C745        C746   1.408       .  A
C745       Br754   1.928       .  S
C746       Br750   1.932       .  S
C755        C756   1.415       .  A
C755        C760   1.410       .  A
C756        C757   1.409       .  A
C756       Br768   1.932       .  S
C757        C758   1.408       .  A
C757       Br772   1.930       .  S
C758        C761   1.497       .  S
C758        C759   1.415       .  A
C759        C760   1.412       .  A
C759       Br767   1.927   1_455  S
C760       Br771   1.931   1_455  S
C761        C762   1.413       .  A
C761        C766   1.412       .  A
C762        C763   1.411       .  A
C762       Br773   1.930       .  S
C763        C764   1.411       .  A
C763       Br769   1.926       .  S
C764        C765   1.413       .  A
C765        C766   1.410       .  A
C765       Br774   1.929       .  S
C766       Br770   1.930       .  S
C775        C776   1.410       .  A
C775        C780   1.407       .  A
C776        C777   1.404       .  A
C776       Br788   1.934       .  S
C777        C778   1.414       .  A
C777       Br792   1.933       .  S
C778        C781   1.492       .  S
C778        C779   1.413       .  A
C779        C780   1.409       .  A
C779       Br787   1.929       .  S
C780       Br791   1.925       .  S
C781        C782   1.414       .  A
C781        C786   1.405       .  A
C782        C783   1.412       .  A
C782       Br793   1.933       .  S
C783        C784   1.416       .  A
C783       Br789   1.932       .  S
C784        C785   1.424       .  A
C785        C786   1.407       .  A
C785       Br794   1.937       .  S
C786       Br790   1.935       .  S
C795        C796   1.415       .  A
C795        C800   1.420       .  A
C796        C797   1.416       .  A
C796       Br808   1.931       .  S
C797        C798   1.418       .  A
C797       Br812   1.932       .  S
C798        C801   1.496       .  S
C798        C799   1.405       .  A
C799        C800   1.401       .  A
C799       Br807   1.934       .  S
C800       Br811   1.938       .  S
C801        C802   1.415       .  A
C801        C806   1.413       .  A
C802        C803   1.405       .  A
C802       Br813   1.939       .  S
C803        C804   1.412       .  A
C803       Br809   1.934       .  S
C804        C805   1.411       .  A
C805        C806   1.412       .  A
C805       Br814   1.928       .  S
C806       Br810   1.929       .  S
C815        C816   1.412       .  A
C815        C820   1.410       .  A
C816        C817   1.411       .  A
C816       Br828   1.928       .  S
C817        C818   1.411       .  A
C817       Br832   1.929       .  S
C818        C821   1.488       .  S
C818        C819   1.408       .  A
C819        C820   1.406       .  A
C819       Br827   1.928       .  S
C820       Br831   1.927       .  S
C821        C822   1.406       .  A
C821        C826   1.411       .  A
C822        C823   1.408       .  A
C822       Br833   1.928       .  S
C823        C824   1.416       .  A
C823       Br829   1.931       .  S
C824        C825   1.415       .  A
C825        C826   1.410       .  A
C825       Br834   1.931       .  S
C826       Br830   1.933       .  S
C835        C836   1.409       .  A
C835        C840   1.410       .  A
C836        C837   1.411       .  A
C836       Br848   1.926       .  S
C837        C838   1.413       .  A
C837       Br852   1.928       .  S
C838        C841   1.495       .  S
C838        C839   1.409       .  A
C839        C840   1.410       .  A
C839       Br847   1.926       .  S
C840       Br851   1.926       .  S
C841        C842   1.409       .  A
C841        C846   1.411       .  A
C842        C843   1.412       .  A
C842       Br853   1.926       .  S
C843        C844   1.412       .  A
C843       Br849   1.928       .  S
C844        C845   1.410       .  A
C845        C846   1.408       .  A
C845       Br854   1.933       .  S
C846       Br850   1.922       .  S
C855        C856   1.420       .  A
C855        C860   1.424       .  A
C856        C857   1.410       .  A
C856       Br868   1.934       .  S
C857        C858   1.409       .  A
C857       Br872   1.933       .  S
C858        C861   1.490       .  S
C858        C859   1.407       .  A
C859        C860   1.410       .  A
C859       Br867   1.934   1_545  S
C860       Br871   1.936   1_545  S
C861        C862   1.410       .  A
C861        C866   1.414       .  A
C862        C863   1.403       .  A
C862       Br873   1.931       .  S
C863        C864   1.408       .  A
C863       Br869   1.930       .  S
C864        C865   1.409       .  A
C865        C866   1.412       .  A
C865       Br874   1.927       .  S
C866       Br870   1.929       .  S
C875        C876   1.411       .  A
C875        C880   1.412       .  A
C876        C877   1.406       .  A
C876       Br888   1.929       .  S
C877        C878   1.408       .  A
C877       Br892   1.928       .  S
C878        C881   1.487       .  S
C878        C879   1.411       .  A
C879        C880   1.408       .  A
C879       Br887   1.930       .  S
C880       Br891   1.929       .  S
C881        C882   1.410       .  A
C881        C886   1.406       .  A
C882        C883   1.408       .  A
C882       Br893   1.932       .  S
C883        C884   1.413       .  A
C883       Br889   1.931       .  S
C884        C885   1.416       .  A
C885        C886   1.409       .  A
C885       Br894   1.931   1_545  S
C886       Br890   1.929   1_545  S
C895        C896   1.407       .  A
C895        C900   1.416       .  A
C896        C897   1.411       .  A
C896       Br908   1.928       .  S
C897        C898   1.418       .  A
C897       Br912   1.935       .  S
C898        C901   1.488       .  S
C898        C899   1.406       .  A
C899        C900   1.404       .  A
C899       Br907   1.932       .  S
C900       Br911   1.934   1_565  S
C901        C902   1.412       .  A
C901        C906   1.411       .  A
C902        C903   1.404       .  A
C902       Br913   1.932   1_455  S
C903        C904   1.410       .  A
C903       Br909   1.931   1_455  S
C904        C905   1.409       .  A
C905        C906   1.408       .  A
C905       Br914   1.926       .  S
C906       Br910   1.928       .  S
C915        C916   1.413       .  A
C915        C920   1.411       .  A
C916        C917   1.409       .  A
C916       Br928   1.928       .  S
C917        C918   1.408       .  A
C917       Br932   1.928       .  S
C918        C921   1.491       .  S
C918        C919   1.410       .  A
C919        C920   1.410       .  A
C919       Br927   1.928       .  S
C920       Br931   1.928       .  S
C921        C922   1.409       .  A
C921        C926   1.412       .  A
C922        C923   1.412       .  A
C922       Br933   1.928       .  S
C923        C924   1.414       .  A
C923       Br929   1.928       .  S
C924        C925   1.410       .  A
C925        C926   1.407       .  A
C925       Br934   1.931       .  S
C926       Br930   1.933       .  S
C935        C936   1.413       .  A
C935        C940   1.410       .  A
C936        C937   1.408       .  A
C936       Br948   1.930       .  S
C937        C938   1.411       .  A
C937       Br952   1.932       .  S
C938        C941   1.492       .  S
C938        C939   1.413       .  A
C939        C940   1.410       .  A
C939       Br947   1.931       .  S
C940       Br951   1.927       .  S
C941        C942   1.415       .  A
C941        C946   1.410       .  A
C942        C943   1.409       .  A
C942       Br953   1.932       .  S
C943        C944   1.409       .  A
C943       Br949   1.931       .  S
C944        C945   1.411       .  A
C945        C946   1.409       .  A
C945       Br954   1.927       .  S
C946       Br950   1.931       .  S
C955        C956   1.411       .  A
C955        C960   1.411       .  A
C956        C957   1.408       .  A
C956       Br968   1.927       .  S
C957        C958   1.408       .  A
C957       Br972   1.930       .  S
C958        C961   1.480       .  S
C958        C959   1.407       .  A
C959        C960   1.405       .  A
C959       Br967   1.929       .  S
C960       Br971   1.928       .  S
C961        C962   1.410       .  A
C961        C966   1.407       .  A
C962        C963   1.404       .  A
C962       Br973   1.933       .  S
C963        C964   1.411       .  A
C963       Br969   1.933       .  S
C964        C965   1.412       .  A
C965        C966   1.407       .  A
C965       Br974   1.931   1_545  S
C966       Br970   1.927       .  S
C975        C976   1.410       .  A
C975        C980   1.414       .  A
C976        C977   1.415       .  A
C976       Br988   1.925       .  S
C977        C978   1.414       .  A
C977       Br992   1.925       .  S
C978        C981   1.495       .  S
C978        C979   1.407       .  A
C979        C980   1.407       .  A
C979       Br987   1.928       .  S
C980       Br991   1.931       .  S
C981        C982   1.413       .  A
C981        C986   1.412       .  A
C982        C983   1.406       .  A
C982       Br993   1.930       .  S
C983        C984   1.407       .  A
C983       Br989   1.927       .  S
C984        C985   1.410       .  A
C985        C986   1.415       .  A
C985       Br994   1.924       .  S
C986       Br990   1.925       .  S
C995        C996   1.406       .  A
C995       C1000   1.411       .  A
C996        C997   1.405       .  A
C996      Br1008   1.924       .  S
C997        C998   1.409       .  A
C997      Br1012   1.929       .  S
C998       C1001   1.476       .  S
C998        C999   1.408       .  A
C999       C1000   1.400       .  A
C999      Br1007   1.931       .  S
C1000     Br1011   1.930       .  S
C1001      C1002   1.403       .  A
C1001      C1006   1.411       .  A
C1002      C1003   1.402       .  A
C1002     Br1013   1.934       .  S
C1003      C1004   1.419       .  A
C1003     Br1009   1.935   1_545  S
C1004      C1005   1.413       .  A
C1005      C1006   1.406       .  A
C1005     Br1014   1.932       .  S
C1006     Br1010   1.934       .  S
C1015      C1016   1.411       .  A
C1015      C1020   1.411       .  A
C1016      C1017   1.402       .  A
C1016     Br1028   1.930   1_556  S
C1017      C1018   1.408       .  A
C1017     Br1032   1.930       .  S
C1018      C1021   1.479       .  S
C1018      C1019   1.407       .  A
C1019      C1020   1.404       .  A
C1019     Br1027   1.929       .  S
C1020     Br1031   1.928       .  S
C1021      C1022   1.414       .  A
C1021      C1026   1.404       .  A
C1022      C1023   1.406       .  A
C1022     Br1033   1.936   1_556  S
C1023      C1024   1.411       .  A
C1023     Br1029   1.935   1_556  S
C1024      C1025   1.416       .  A
C1025      C1026   1.405       .  A
C1025     Br1034   1.930       .  S
C1026     Br1030   1.932       .  S
C1035      C1036   1.410       .  A
C1035      C1040   1.406       .  A
C1036      C1037   1.404       .  A
C1036     Br1048   1.931   1_556  S
C1037      C1038   1.413       .  A
C1037     Br1052   1.932       .  S
C1038      C1041   1.489       .  S
C1038      C1039   1.411       .  A
C1039      C1040   1.408       .  A
C1039     Br1047   1.927       .  S
C1040     Br1051   1.924       .  S
C1041      C1042   1.418       .  A
C1041      C1046   1.404       .  A
C1042      C1043   1.414       .  A
C1042     Br1053   1.934       .  S
C1043      C1044   1.410       .  A
C1043     Br1049   1.928       .  S
C1044      C1045   1.421       .  A
C1045      C1046   1.403       .  A
C1045     Br1054   1.938       .  S
C1046     Br1050   1.934       .  S
C1055      C1056   1.411       .  A
C1055      C1060   1.412       .  A
C1056      C1057   1.407       .  A
C1056     Br1068   1.927       .  S
C1057      C1058   1.408       .  A
C1057     Br1072   1.930       .  S
C1058      C1061   1.489       .  S
C1058      C1059   1.411       .  A
C1059      C1060   1.410       .  A
C1059     Br1067   1.929       .  S
C1060     Br1071   1.928       .  S
C1061      C1062   1.411       .  A
C1061      C1066   1.406       .  A
C1062      C1063   1.409       .  A
C1062     Br1073   1.929       .  S
C1063      C1064   1.414       .  A
C1063     Br1069   1.932       .  S
C1064      C1065   1.416       .  A
C1065      C1066   1.409       .  A
C1065     Br1074   1.930       .  S
C1066     Br1070   1.929       .  S
C1075      C1076   1.411       .  A
C1075      C1080   1.411       .  A
C1076      C1077   1.409       .  A
C1076     Br1088   1.929       .  S
C1077      C1078   1.410       .  A
C1077     Br1092   1.928       .  S
C1078      C1081   1.496       .  S
C1078      C1079   1.414       .  A
C1079      C1080   1.412       .  A
C1079     Br1087   1.929       .  S
C1080     Br1091   1.930       .  S
C1081      C1082   1.410       .  A
C1081      C1086   1.413       .  A
C1082      C1083   1.413       .  A
C1082     Br1093   1.928       .  S
C1083      C1084   1.414       .  A
C1083     Br1089   1.928       .  S
C1084      C1085   1.410       .  A
C1085      C1086   1.409       .  A
C1085     Br1094   1.932       .  S
C1086     Br1090   1.926       .  S
C1095      C1096   1.409       .  A
C1095      C1100   1.411       .  A
C1096      C1097   1.411       .  A
C1096     Br1108   1.924       .  S
C1097      C1098   1.411       .  A
C1097     Br1112   1.928       .  S
C1098      C1101   1.490       .  S
C1098      C1099   1.411       .  A
C1099      C1100   1.405       .  A
C1099     Br1107   1.931       .  S
C1100     Br1111   1.931       .  S
C1101      C1102   1.413       .  A
C1101      C1106   1.403       .  A
C1102      C1103   1.412       .  A
C1102     Br1113   1.931       .  S
C1103      C1104   1.416       .  A
C1103     Br1109   1.932       .  S
C1104      C1105   1.424       .  A
C1105      C1106   1.405       .  A
C1105     Br1114   1.938       .  S
C1106     Br1110   1.932       .  S
C1115      C1116   1.409       .  A
C1115      C1120   1.406       .  A
C1116      C1117   1.402       .  A
C1116     Br1128   1.932   1_556  S
C1117      C1118   1.410       .  A
C1117     Br1132   1.932   1_556  S
C1118      C1121   1.480       .  S
C1118      C1119   1.409       .  A
C1119      C1120   1.405       .  A
C1119     Br1127   1.928       .  S
C1120     Br1131   1.926       .  S
C1121      C1122   1.403       .  A
C1121      C1126   1.415       .  A
C1122      C1123   1.401       .  A
C1122     Br1133   1.932       .  S
C1123      C1124   1.418       .  A
C1123     Br1129   1.935       .  S
C1124      C1125   1.410       .  A
C1125      C1126   1.410       .  A
C1125     Br1134   1.929       .  S
C1126     Br1130   1.934       .  S
C1135      C1136   1.420       .  A
C1135      C1140   1.413       .  A
C1136      C1137   1.413       .  A
C1136     Br1148   1.930       .  S
C1137      C1138   1.406       .  A
C1137     Br1152   1.927       .  S
C1138      C1141   1.492       .  S
C1138      C1139   1.408       .  A
C1139      C1140   1.407       .  A
C1139     Br1147   1.923       .  S
C1140     Br1151   1.930       .  S
C1141      C1142   1.408       .  A
C1141      C1146   1.412       .  A
C1142      C1143   1.408       .  A
C1142     Br1153   1.927       .  S
C1143      C1144   1.412       .  A
C1143     Br1149   1.926       .  S
C1144      C1145   1.410       .  A
C1145      C1146   1.411       .  A
C1145     Br1154   1.928       .  S
C1146     Br1150   1.928       .  S
C1155      C1156   1.409       .  A
C1155      C1160   1.408       .  A
C1156      C1157   1.409       .  A
C1156     Br1168   1.927       .  S
C1157      C1158   1.411       .  A
C1157     Br1172   1.928       .  S
C1158      C1161   1.486       .  S
C1158      C1159   1.412       .  A
C1159      C1160   1.403       .  A
C1159     Br1167   1.934       .  S
C1160     Br1171   1.930   1_556  S
C1161      C1162   1.403       .  A
C1161      C1166   1.414       .  A
C1162      C1163   1.402       .  A
C1162     Br1173   1.937       .  S
C1163      C1164   1.425       .  A
C1163     Br1169   1.939       .  S
C1164      C1165   1.414       .  A
C1165      C1166   1.413       .  A
C1165     Br1174   1.929       .  S
C1166     Br1170   1.930   1_556  S
C1175      C1176   1.412       .  A
C1175      C1180   1.410       .  A
C1176      C1177   1.407       .  A
C1176     Br1188   1.934       .  S
C1177      C1178   1.414       .  A
C1177     Br1192   1.930       .  S
C1178      C1181   1.489       .  S
C1178      C1179   1.409       .  A
C1179      C1180   1.406       .  A
C1179     Br1187   1.929   1_545  S
C1180     Br1191   1.930   1_545  S
C1181      C1182   1.409       .  A
C1181      C1186   1.412       .  A
C1182      C1183   1.403       .  A
C1182     Br1193   1.932       .  S
C1183      C1184   1.410       .  A
C1183     Br1189   1.927       .  S
C1184      C1185   1.413       .  A
C1185      C1186   1.411       .  A
C1185     Br1194   1.927       .  S
C1186     Br1190   1.930       .  S
C1195      C1196   1.412       .  A
C1195      C1200   1.408       .  A
C1196      C1197   1.410       .  A
C1196     Br1208   1.927       .  S
C1197      C1198   1.411       .  A
C1197     Br1212   1.930       .  S
C1198      C1201   1.494       .  S
C1198      C1199   1.412       .  A
C1199      C1200   1.409       .  A
C1199     Br1207   1.927       .  S
C1200     Br1211   1.929       .  S
C1201      C1202   1.411       .  A
C1201      C1206   1.406       .  A
C1202      C1203   1.411       .  A
C1202     Br1213   1.931       .  S
C1203      C1204   1.417       .  A
C1203     Br1209   1.932       .  S
C1204      C1205   1.422       .  A
C1205      C1206   1.410       .  A
C1205     Br1214   1.931   1_545  S
C1206     Br1210   1.931   1_545  S
C1215      C1216   1.410       .  A
C1215      C1220   1.410       .  A
C1216      C1217   1.412       .  A
C1216     Br1228   1.926       .  S
C1217      C1218   1.414       .  A
C1217     Br1232   1.929       .  S
C1218      C1221   1.500       .  S
C1218      C1219   1.413       .  A
C1219      C1220   1.410       .  A
C1219     Br1227   1.928       .  S
C1220     Br1231   1.928       .  S
C1221      C1222   1.412       .  A
C1221      C1226   1.417       .  A
C1222      C1223   1.413       .  A
C1222     Br1233   1.928       .  S
C1223      C1224   1.411       .  A
C1223     Br1229   1.928       .  S
C1224      C1225   1.406       .  A
C1225      C1226   1.410       .  A
C1225     Br1234   1.930       .  S
C1226     Br1230   1.930       .  S
C1235      C1236   1.410       .  A
C1235      C1240   1.412       .  A
C1236      C1237   1.411       .  A
C1236     Br1248   1.927       .  S
C1237      C1238   1.411       .  A
C1237     Br1252   1.927       .  S
C1238      C1241   1.493       .  S
C1238      C1239   1.409       .  A
C1239      C1240   1.410       .  A
C1239     Br1247   1.927       .  S
C1240     Br1251   1.925   1_455  S
C1241      C1242   1.407       .  A
C1241      C1246   1.410       .  A
C1242      C1243   1.413       .  A
C1242     Br1253   1.926       .  S
C1243      C1244   1.414       .  A
C1243     Br1249   1.927       .  S
C1244      C1245   1.409       .  A
C1245      C1246   1.407       .  A
C1245     Br1254   1.932   1_455  S
C1246     Br1250   1.921   1_455  S
C1255      C1256   1.414       .  A
C1255      C1260   1.422       .  A
C1256      C1257   1.415       .  A
C1256     Br1268   1.930       .  S
C1257      C1258   1.415       .  A
C1257     Br1272   1.930       .  S
C1258      C1261   1.502       .  S
C1258      C1259   1.409       .  A
C1259      C1260   1.412       .  A
C1259     Br1267   1.933       .  S
C1260     Br1271   1.935       .  S
C1261      C1262   1.413       .  A
C1261      C1266   1.415       .  A
C1262      C1263   1.409       .  A
C1262     Br1273   1.931       .  S
C1263      C1264   1.413       .  A
C1263     Br1269   1.932       .  S
C1264      C1265   1.408       .  A
C1265      C1266   1.414       .  A
C1265     Br1274   1.925       .  S
C1266     Br1270   1.926       .  S
C1275      C1276   1.414       .  A
C1275      C1280   1.413       .  A
C1276      C1277   1.407       .  A
C1276     Br1288   1.933       .  S
C1277      C1278   1.411       .  A
C1277     Br1292   1.932   1_556  S
C1278      C1281   1.485       .  S
C1278      C1279   1.407       .  A
C1279      C1280   1.407       .  A
C1279     Br1287   1.929       .  S
C1280     Br1291   1.930       .  S
C1281      C1282   1.409       .  A
C1281      C1286   1.412       .  A
C1282      C1283   1.406       .  A
C1282     Br1293   1.929       .  S
C1283      C1284   1.409       .  A
C1283     Br1289   1.929       .  S
C1284      C1285   1.408       .  A
C1285      C1286   1.405       .  A
C1285     Br1294   1.930       .  S
C1286     Br1290   1.930       .  S
C1295      C1296   1.409       .  A
C1295      C1300   1.411       .  A
C1296      C1297   1.411       .  A
C1296     Br1308   1.925       .  S
C1297      C1298   1.412       .  A
C1297     Br1312   1.928       .  S
C1298      C1301   1.495       .  S
C1298      C1299   1.414       .  A
C1299      C1300   1.407       .  A
C1299     Br1307   1.935       .  S
C1300     Br1311   1.932   1_455  S
C1301      C1302   1.405       .  A
C1301      C1306   1.417       .  A
C1302      C1303   1.406       .  A
C1302     Br1313   1.935       .  S
C1303      C1304   1.424       .  A
C1303     Br1309   1.938       .  S
C1304      C1305   1.413       .  A
C1305      C1306   1.413       .  A
C1305     Br1314   1.934       .  S
C1306     Br1310   1.930       .  S
C1315      C1316   1.410       .  A
C1315      C1320   1.416       .  A
C1316      C1317   1.407       .  A
C1316     Br1328   1.933       .  S
C1317      C1318   1.412       .  A
C1317     Br1332   1.927       .  S
C1318      C1321   1.488       .  S
C1318      C1319   1.408       .  A
C1319      C1320   1.407       .  A
C1319     Br1327   1.932       .  S
C1320     Br1331   1.934       .  S
C1321      C1322   1.411       .  A
C1321      C1326   1.412       .  A
C1322      C1323   1.404       .  A
C1322     Br1333   1.931       .  S
C1323      C1324   1.409       .  A
C1323     Br1329   1.929   1_556  S
C1324      C1325   1.408       .  A
C1325      C1326   1.409       .  A
C1325     Br1334   1.927       .  S
C1326     Br1330   1.929       .  S
C1335      C1336   1.411       .  A
C1335      C1340   1.407       .  A
C1336      C1337   1.411       .  A
C1336     Br1348   1.929       .  S
C1337      C1338   1.411       .  A
C1337     Br1352   1.928       .  S
C1338      C1341   1.495       .  S
C1338      C1339   1.414       .  A
C1339      C1340   1.408       .  A
C1339     Br1347   1.927       .  S
C1340     Br1351   1.930       .  S
C1341      C1342   1.414       .  A
C1341      C1346   1.410       .  A
C1342      C1343   1.412       .  A
C1342     Br1353   1.929       .  S
C1343      C1344   1.409       .  A
C1343     Br1349   1.926       .  S
C1344      C1345   1.412       .  A
C1345      C1346   1.409       .  A
C1345     Br1354   1.926       .  S
C1346     Br1350   1.929       .  S
C1355      C1356   1.408       .  A
C1355      C1360   1.408       .  A
C1356      C1357   1.408       .  A
C1356     Br1368   1.925       .  S
C1357      C1358   1.410       .  A
C1357     Br1372   1.929       .  S
C1358      C1361   1.485       .  S
C1358      C1359   1.411       .  A
C1359      C1360   1.405       .  A
C1359     Br1367   1.933       .  S
C1360     Br1371   1.928       .  S
C1361      C1362   1.407       .  A
C1361      C1366   1.416       .  A
C1362      C1363   1.406       .  A
C1362     Br1373   1.931       .  S
C1363      C1364   1.415       .  A
C1363     Br1369   1.933       .  S
C1364      C1365   1.404       .  A
C1365      C1366   1.405       .  A
C1365     Br1374   1.931       .  S
C1366     Br1370   1.932       .  S
C1375      C1376   1.410       .  A
C1375      C1380   1.415       .  A
C1376      C1377   1.406       .  A
C1376     Br1388   1.929       .  S
C1377      C1378   1.410       .  A
C1377     Br1392   1.926       .  S
C1378      C1381   1.483       .  S
C1378      C1379   1.404       .  A
C1379      C1380   1.408       .  A
C1379     Br1387   1.928       .  S
C1380     Br1391   1.928       .  S
C1381      C1382   1.408       .  A
C1381      C1386   1.411       .  A
C1382      C1383   1.407       .  A
C1382     Br1393   1.926       .  S
C1383      C1384   1.407       .  A
C1383     Br1389   1.926       .  S
C1384      C1385   1.410       .  A
C1385      C1386   1.406       .  A
C1385     Br1394   1.929       .  S
C1386     Br1390   1.932       .  S
C1395      C1396   1.407       .  A
C1395      C1400   1.410       .  A
C1396      C1397   1.408       .  A
C1396     Br1408   1.933       .  S
C1397      C1398   1.416       .  A
C1397     Br1412   1.928       .  S
C1398      C1401   1.499       .  S
C1398      C1399   1.412       .  A
C1399      C1400   1.413       .  A
C1399     Br1407   1.927       .  S
C1400     Br1411   1.928       .  S
C1401      C1402   1.414       .  A
C1401      C1406   1.412       .  A
C1402      C1403   1.412       .  A
C1402     Br1413   1.926       .  S
C1403      C1404   1.409       .  A
C1403     Br1409   1.926       .  S
C1404      C1405   1.409       .  A
C1405      C1406   1.409       .  A
C1405     Br1414   1.926   1_455  S
C1406     Br1410   1.927   1_455  S
C1415      C1416   1.409       .  A
C1415      C1420   1.410       .  A
C1416      C1417   1.407       .  A
C1416     Br1428   1.926       .  S
C1417      C1418   1.410       .  A
C1417     Br1432   1.929       .  S
C1418      C1421   1.491       .  S
C1418      C1419   1.412       .  A
C1419      C1420   1.411       .  A
C1419     Br1427   1.929       .  S
C1420     Br1431   1.926       .  S
C1421      C1422   1.412       .  A
C1421      C1426   1.406       .  A
C1422      C1423   1.411       .  A
C1422     Br1433   1.931       .  S
C1423      C1424   1.415       .  A
C1423     Br1429   1.932       .  S
C1424      C1425   1.419       .  A
C1425      C1426   1.408       .  A
C1425     Br1434   1.934       .  S
C1426     Br1430   1.931       .  S
C1435      C1436   1.415       .  A
C1435      C1440   1.407       .  A
C1436      C1437   1.403       .  A
C1436     Br1448   1.932       .  S
C1437      C1438   1.403       .  A
C1437     Br1452   1.930       .  S
C1438      C1441   1.482       .  S
C1438      C1439   1.413       .  A
C1439      C1440   1.407       .  A
C1439     Br1447   1.925       .  S
C1440     Br1451   1.930       .  S
C1441      C1442   1.409       .  A
C1441      C1446   1.409       .  A
C1442      C1443   1.405       .  A
C1442     Br1453   1.931       .  S
C1443      C1444   1.410       .  A
C1443     Br1449   1.929       .  S
C1444      C1445   1.409       .  A
C1445      C1446   1.406       .  A
C1445     Br1454   1.927       .  S
C1446     Br1450   1.929       .  S
C1455      C1456   1.414       .  A
C1455      C1460   1.413       .  A
C1456      C1457   1.408       .  A
C1456     Br1468   1.929       .  S
C1457      C1458   1.405       .  A
C1457     Br1472   1.928       .  S
C1458      C1461   1.484       .  S
C1458      C1459   1.411       .  A
C1459      C1460   1.409       .  A
C1459     Br1467   1.933       .  S
C1460     Br1471   1.929       .  S
C1461      C1462   1.408       .  A
C1461      C1466   1.411       .  A
C1462      C1463   1.408       .  A
C1462     Br1473   1.926       .  S
C1463      C1464   1.409       .  A
C1463     Br1469   1.926       .  S
C1464      C1465   1.407       .  A
C1465      C1466   1.405       .  A
C1465     Br1474   1.928       .  S
C1466     Br1470   1.931       .  S
C1475      C1476   1.411       .  A
C1475      C1480   1.406       .  A
C1476      C1477   1.411       .  A
C1476     Br1488   1.927       .  S
C1477      C1478   1.409       .  A
C1477     Br1492   1.929       .  S
C1478      C1481   1.491       .  S
C1478      C1479   1.416       .  A
C1479      C1480   1.407       .  A
C1479     Br1487   1.933       .  S
C1480     Br1491   1.932       .  S
C1481      C1482   1.410       .  A
C1481      C1486   1.410       .  A
C1482      C1483   1.408       .  A
C1482     Br1493   1.928       .  S
C1483      C1484   1.412       .  A
C1483     Br1489   1.928       .  S
C1484      C1485   1.411       .  A
C1485      C1486   1.408       .  A
C1485     Br1494   1.928       .  S
C1486     Br1490   1.929       .  S
C1495      C1496   1.416       .  A
C1495      C1500   1.417       .  A
C1496      C1497   1.412       .  A
C1496     Br1508   1.932       .  S
C1497      C1498   1.413       .  A
C1497     Br1512   1.932   1_556  S
C1498      C1501   1.496       .  S
C1498      C1499   1.410       .  A
C1499      C1500   1.410       .  A
C1499     Br1507   1.933       .  S
C1500     Br1511   1.932       .  S
C1501      C1502   1.410       .  A
C1501      C1506   1.415       .  A
C1502      C1503   1.405       .  A
C1502     Br1513   1.933       .  S
C1503      C1504   1.412       .  A
C1503     Br1509   1.930   1_556  S
C1504      C1505   1.412       .  A
C1505      C1506   1.415       .  A
C1505     Br1514   1.928       .  S
C1506     Br1510   1.929       .  S
C1515      C1516   1.411       .  A
C1515      C1520   1.410   1_554  A
C1516      C1517   1.401   1_554  A
C1516     Br1528   1.932       .  S
C1517      C1518   1.408       .  A
C1517     Br1532   1.931   1_556  S
C1518      C1521   1.480       .  S
C1518      C1519   1.410       .  A
C1519      C1520   1.408       .  A
C1519     Br1527   1.929       .  S
C1520     Br1531   1.928       .  S
C1521      C1522   1.411       .  A
C1521      C1526   1.405       .  A
C1522      C1523   1.406       .  A
C1522     Br1533   1.932   1_556  S
C1523      C1524   1.412       .  A
C1523     Br1529   1.931       .  S
C1524      C1525   1.414       .  A
C1525      C1526   1.404       .  A
C1525     Br1534   1.931       .  S
C1526     Br1530   1.930       .  S
C1535      C1536   1.415       .  A
C1535      C1540   1.420       .  A
C1536      C1537   1.415       .  A
C1536     Br1548   1.927       .  S
C1537      C1538   1.413       .  A
C1537     Br1552   1.923   1_455  S
C1538      C1541   1.489       .  S
C1538      C1539   1.401       .  A
C1539      C1540   1.404       .  A
C1539     Br1547   1.929       .  S
C1540     Br1551   1.931       .  S
C1541      C1542   1.411       .  A
C1541      C1546   1.412       .  A
C1542      C1543   1.410       .  A
C1542     Br1553   1.925       .  S
C1543      C1544   1.408       .  A
C1543     Br1549   1.926       .  S
C1544      C1545   1.405       .  A
C1545      C1546   1.405       .  A
C1545     Br1554   1.927       .  S
C1546     Br1550   1.928       .  S
