geometry optimzed in LAMMPS
_audit_creation_date              2020-12-01 
_audit_creation_method            'lammps2cif' 
_symmetry_space_group_name_H-M    'P1' 
_symmetry_Int_Tables_number       1 
_symmetry_cell_setting            triclinic 
loop_ 
_symmetry_equiv_pos_as_xyz 
  x,y,z 
_cell_length_a                    26.95605672 
_cell_length_b                    26.85058684030893 
_cell_length_c                    44.248731646773884 
_cell_angle_alpha                 91.28449333049178 
_cell_angle_beta                  89.34395628910255 
_cell_angle_gamma                 90.38618107575662 
loop_ 
_atom_site_label 
_atom_site_type_symbol 
_atom_site_fract_x 
_atom_site_fract_y 
_atom_site_fract_z 
_atom_site_charge 
In1        In  0.44727036  0.82779267  0.40394777     1.36900
C2          C  0.41729216  0.74108758  0.38052181     0.79500
O3          O  0.47909846  0.77376790  0.43631147    -0.59000
O4          O  0.43725120  0.83431060  0.45470813    -0.49900
C5          C  0.52910508  0.88006468  0.39079744     0.72100
O6          O  0.51677257  0.84096148  0.37648985    -0.44700
C7          C  0.37260884  0.88080245  0.38179070     0.76900
O8          O  0.45521745  0.76349374  0.37046209    -0.56600
O9          O  0.37993150  0.87829240  0.40984920    -0.46700
O10         O  0.39574919  0.76283840  0.40254933    -0.53000
C11         C  0.46043316  0.79452963  0.45955164     0.87000
O12         O  0.50078790  0.89141893  0.41270418    -0.54900
O13         O  0.40427030  0.85837641  0.36562791    -0.58200
In14       In  0.44830288  0.71271719  0.09834122     1.36900
C15         C  0.41176462  0.79741049  0.12110975     0.79500
O16         O  0.48762140  0.76837856  0.06929691    -0.59000
O17         O  0.44372076  0.71257119  0.04726877    -0.49900
C18         C  0.52568962  0.65451472  0.10946611     0.72100
O19         O  0.51628789  0.69318710  0.12531304    -0.44700
C20         C  0.37384631  0.65806476  0.12061270     0.76900
O21         O  0.45157071  0.77900991  0.13087125    -0.56600
O22         O  0.38085787  0.66176043  0.09238866    -0.46700
O23         O  0.39160020  0.77252775  0.09995538    -0.53000
C24         C  0.47044074  0.75128173  0.04475281     0.87000
O25         O  0.49697487  0.64722072  0.08752989    -0.54900
O26         O  0.40589133  0.67994058  0.13665196    -0.58200
In27       In  0.78511249  0.47324065  0.36000972     1.36900
C28         C  0.70215293  0.45700098  0.39247915     0.79500
O29         O  0.73655374  0.50056904  0.32277489    -0.59000
O30         O  0.80427622  0.46511288  0.31045643    -0.49900
C31         C  0.83718369  0.55064777  0.38412633     0.72100
O32         O  0.82442509  0.51284653  0.39853833    -0.44700
C33         C  0.83031051  0.38459783  0.36007693     0.76900
O34         O  0.74484681  0.44911830  0.40242963    -0.56600
O35         O  0.85406563  0.42518798  0.36157608    -0.46700
O36         O  0.70193512  0.47697949  0.36698630    -0.53000
C37         C  0.76482299  0.48505181  0.30169839     0.87000
O38         O  0.82139920  0.55057724  0.35746402    -0.54900
O39         O  0.78433735  0.38949257  0.35680218    -0.58200
In40       In  0.67120646  0.49635494  0.16868561     1.36900
C41         C  0.75455799  0.48752926  0.13615534     0.79500
O42         O  0.65018340  0.49980777  0.21825301    -0.59000
O43         O  0.72658041  0.49854514  0.20648045    -0.49900
C44         C  0.62083268  0.57656012  0.15135251     0.72100
O45         O  0.63579863  0.54327772  0.13296825    -0.44700
C46         C  0.62080205  0.41045391  0.16266717     0.76900
O47         O  0.71665955  0.46088849  0.13146879    -0.56600
O48         O  0.60224035  0.45160416  0.15587992    -0.46700
O49         O  0.74848606  0.52194335  0.15567717    -0.53000
C50         C  0.69437619  0.49952082  0.22733809     0.87000
O51         O  0.63389413  0.57022462  0.17818707    -0.54900
O52         O  0.66355248  0.41372116  0.17357562    -0.58200
In53       In  0.00823057  0.71297887  0.41035493     1.36900
C54         C  0.04858969  0.79987208  0.39491500     0.79500
O55         O  0.96876125  0.75863455  0.44666823    -0.59000
O56         O  0.02475687  0.70779350  0.45945413    -0.49900
C57         C  0.92611553  0.66253486  0.39435766     0.72100
O58         O  0.93863992  0.70307070  0.38238286    -0.44700
C59         C  0.07872900  0.65508279  0.38582055     0.76900
O60         O  0.01136202  0.78182370  0.38118480    -0.56600
O61         O  0.06764217  0.65373264  0.41359572    -0.46700
O62         O  0.06408866  0.77387361  0.41607871    -0.53000
C63         C  0.99507740  0.74187480  0.46759210     0.87000
O64         O  0.95381895  0.64972773  0.41555630    -0.54900
O65         O  0.05268148  0.68415471  0.37087329    -0.58200
In66       In  0.98451406  0.83248335  0.10144625     1.36900
C67         C  0.01240517  0.74566635  0.12317334     0.79500
O68         O  0.93416749  0.80160849  0.06473333    -0.59000
O69         O  0.00622216  0.82701421  0.05261606    -0.49900
C70         C  0.91078709  0.89065106  0.12191555     0.72100
O71         O  0.90959290  0.84393454  0.12448120    -0.44700
C72         C  0.06591950  0.88157613  0.11857004     0.76900
O73         O  0.98122971  0.77300643  0.13702380    -0.56600
O74         O  0.04592406  0.88910688  0.09339327    -0.46700
O75         O  0.02588808  0.76123417  0.09773148    -0.53000
C76         C  0.96657769  0.80610838  0.04418882     0.87000
O77         O  0.94878999  0.90690777  0.10840164    -0.54900
O78         O  0.04315962  0.85113468  0.13499944    -0.58200
In79       In  0.66955437  0.06603320  0.36285952     1.36900
C80         C  0.74705100  0.09135033  0.39647864     0.79500
O81         O  0.65461042  0.05410600  0.31327033    -0.62200
O82         O  0.72950348  0.05467984  0.32746812    -0.49900
C83         C  0.62193803  0.98775047  0.38612358     0.72100
O84         O  0.63260493  0.99059765  0.35844559    -0.44700
C85         C  0.61341630  0.14761659  0.36242209     0.76900
O86         O  0.70618219  0.11359476  0.39828015    -0.56600
O87         O  0.59695505  0.10637105  0.37129317    -0.46700
O88         O  0.74739508  0.05332189  0.37914634    -0.53000
C89         C  0.69978000  0.05125546  0.30573972     0.87000
O90         O  0.63866189  0.02308540  0.40218321    -0.54900
O91         O  0.65698716  0.14616831  0.35197929    -0.58200
In92       In  0.78707147  0.08093175  0.17405949     1.36900
C93         C  0.69573767  0.10929375  0.16202675     0.79500
O94         O  0.75076951  0.03946369  0.21183047    -0.59000
O95         O  0.80689462  0.09259686  0.22297361    -0.49900
C96         C  0.84584082  0.00898499  0.15190789     0.72100
O97         O  0.79912124  0.00432785  0.15178897    -0.44700
C98         C  0.82655651  0.16038920  0.14844449     0.76900
O99         O  0.71719754  0.07553334  0.14633901    -0.56600
O100        O  0.83482792  0.15051485  0.17575326    -0.46700
O101        O  0.72040243  0.12666261  0.18390317    -0.53000
C102        C  0.77421051  0.06259873  0.23234829     0.87000
O103        O  0.86138054  0.04887167  0.16388513    -0.54900
O104        O  0.79859819  0.12986895  0.13476763    -0.58200
In105      In  0.94995713  0.20567259  0.41545071     1.36900
C106        C  0.91943802  0.28274353  0.38336707     0.79500
O107        O  0.91772249  0.13818069  0.39157183    -0.59000
O108        O  0.87650212  0.17086267  0.42789107    -0.49900
C109        C  0.03355171  0.15679700  0.40124727     0.72100
O110        O  0.00951788  0.18093324  0.38221006    -0.44700
C111        C  0.95747936  0.24689806  0.47076265     0.76900
O112        O  0.96449941  0.27607688  0.38944776    -0.56600
O113        O  0.96800478  0.27013566  0.44710286    -0.46700
O114        O  0.89082701  0.24839949  0.39188328    -0.53000
C115        C  0.87845759  0.13772003  0.40724767     0.87000
O116        O  0.01653022  0.16012336  0.42783328    -0.54900
O117        O  0.94482693  0.20208745  0.46625353    -0.58200
In118      In  0.93352446  0.35125032  0.09268486     1.36900
C119        C  0.90323659  0.27411285  0.12542904     0.79500
O120        O  0.89278286  0.41808214  0.11281584    -0.59000
O121        O  0.85870687  0.37708919  0.07748194    -0.49900
C122        C  0.01623090  0.39970276  0.10982437     0.72100
O123        O  0.00668710  0.38886793  0.08266589    -0.44700
C124        C  0.95439797  0.31646766  0.03708899     0.76900
O125        O  0.94346187  0.29668394  0.13074029    -0.56600
O126        O  0.94288899  0.36118464  0.04282829    -0.46700
O127        O  0.87981658  0.29043947  0.10338381    -0.53000
C128        C  0.85496101  0.41184795  0.09675076     0.87000
O129        O  0.98420202  0.38442948  0.12853327    -0.54900
O130        O  0.95747313  0.28953892  0.06006740    -0.58200
In131      In  0.16106864  0.57120089  0.16001530     1.36900
C132        C  0.24969549  0.59088127  0.13483603     0.79500
O133        O  0.13518867  0.61599970  0.12118536    -0.59000
O134        O  0.10016585  0.62886734  0.16367285    -0.49900
C135        C  0.10152795  0.49219432  0.15155733     0.72100
O136        O  0.14050744  0.49858493  0.13593094    -0.44700
C137        C  0.19170434  0.56971134  0.21689525     0.76900
O138        O  0.22400727  0.55333721  0.12691220    -0.56600
O139        O  0.17092326  0.60694846  0.20576469    -0.46700
O140        O  0.23050925  0.61711023  0.15580822    -0.53000
C141        C  0.10279870  0.63964386  0.13612945     0.87000
O142        O  0.09495211  0.52434795  0.17231101    -0.54900
O143        O  0.19534216  0.53223936  0.19921609    -0.58200
In144      In  0.28219464  0.54885994  0.34856216     1.36900
C145        C  0.19423242  0.57535570  0.37169831     0.79500
O146        O  0.30983605  0.59791971  0.38600575    -0.59000
O147        O  0.34014585  0.60972706  0.34228871    -0.49900
C148        C  0.33965074  0.47188714  0.36235448     0.72100
O149        O  0.30267419  0.48488648  0.37835535    -0.44700
C150        C  0.24985267  0.53600976  0.29232238     0.76900
O151        O  0.21522287  0.53550014  0.37900757    -0.56600
O152        O  0.27266508  0.57471799  0.30125304    -0.46700
O153        O  0.21772767  0.60025709  0.35240396    -0.53000
C154        C  0.33843567  0.62333402  0.36978328     0.87000
O155        O  0.34583106  0.49675699  0.33874889    -0.54900
O156        O  0.24600597  0.50231486  0.31168457    -0.58200
In157      In  0.27208159  0.98962292  0.14721035     1.36900
C158        C  0.18522025  0.95921571  0.12549398     0.79500
O159        O  0.30273741  0.93803446  0.11125224    -0.59000
O160        O  0.32674841  0.92733654  0.15598082    -0.49900
C161        C  0.32539998  0.06928881  0.13089509     0.72100
O162        O  0.29094957  0.05133366  0.11499765    -0.44700
C163        C  0.23706767  0.00685304  0.20313402     0.76900
O164        O  0.20475908  0.00007284  0.11785599    -0.56600
O165        O  0.27598274  0.98198505  0.19795932    -0.46700
O166        O  0.21044472  0.93447751  0.14368923    -0.53000
C167        C  0.32846558  0.91274630  0.12869100     0.87000
O168        O  0.33149141  0.04761568  0.15549465    -0.54900
O169        O  0.21795140  0.02501399  0.18003495    -0.58200
In170      In  0.17080204  0.98520310  0.34213895     1.36900
C171        C  0.25230453  0.95292056  0.36899300     0.79500
O172        O  0.12563907  0.93739514  0.37355181    -0.59000
O173        O  0.12308971  0.91942386  0.32692342    -0.49900
C174        C  0.11731462  0.06658240  0.35644880     0.72100
O175        O  0.15025255  0.05033991  0.37358720    -0.44700
C176        C  0.21255842  0.00391624  0.28852471     0.76900
O177        O  0.22835543  0.99022001  0.37896878    -0.56600
O178        O  0.17053109  0.98338261  0.29125223    -0.46700
O179        O  0.23434130  0.93237511  0.34559388    -0.53000
C180        C  0.10896949  0.90864545  0.35319349     0.87000
O181        O  0.11360113  0.04284330  0.33177212    -0.54900
O182        O  0.23205906  0.01749920  0.31315812    -0.58200
In183      In  0.50450846  0.33496738  0.42105923     1.36900
C184        C  0.52661591  0.24810578  0.39327959     0.79500
O185        O  0.54175057  0.38288839  0.38672180    -0.59000
O186        O  0.56824018  0.38812561  0.43164479    -0.49900
C187        C  0.42334276  0.38693097  0.40784651     0.72100
O188        O  0.44110474  0.35366976  0.39038081    -0.44700
C189        C  0.50946632  0.30403636  0.47799883     0.76900
O190        O  0.48603310  0.25475449  0.40713264    -0.56600
O191        O  0.46910573  0.30519749  0.46382234    -0.46700
O192        O  0.55376771  0.28621626  0.39233529    -0.53000
C193        C  0.57319922  0.40150816  0.40456910     0.87000
O194        O  0.44525827  0.39161743  0.43278534    -0.54900
O195        O  0.54640870  0.32038891  0.46351643    -0.58200
In196      In  0.50811657  0.21917708  0.10934726     1.36900
C197        C  0.53424898  0.30656400  0.13438829     0.79500
O198        O  0.55877051  0.18152557  0.14131862    -0.59000
O199        O  0.56881478  0.16576360  0.09456804    -0.49900
C200        C  0.42828393  0.16803246  0.12851894     0.72100
O201        O  0.43808731  0.17408132  0.10100890    -0.44700
C202        C  0.50311582  0.24566689  0.05155897     0.76900
O203        O  0.48930883  0.29515289  0.12987124    -0.56600
O204        O  0.51630380  0.20290390  0.05937678    -0.46700
O205        O  0.56479072  0.27328441  0.12643342    -0.53000
C206        C  0.58328967  0.15859168  0.12107434     0.87000
O207        O  0.45703239  0.19097754  0.14615756    -0.54900
O208        O  0.49170306  0.27478762  0.07325969    -0.58200
C209        C  0.51435387  0.28465822  0.50883418    -0.14500
C210        C  0.50127892  0.25985113  0.01949646    -0.29700
H211        H  0.55151348  0.28294281  0.51802274     0.14500
H212        H  0.50323821  0.23023673  0.00238326     0.15100
C213        C  0.35744237  0.11057412  0.12069955    -0.14500
C214        C  0.38897272  0.13425460  0.13950460    -0.29700
H215        H  0.35701060  0.11974561  0.09690912     0.14500
H216        H  0.38841303  0.12586330  0.16342239     0.15100
C217        C  0.23833922  0.00865510  0.25907268    -0.14500
C218        C  0.21311863  0.01145553  0.23322339    -0.29700
H219        H  0.27863838  0.00790767  0.25854756     0.14500
H220        H  0.17305226  0.01565682  0.23405750     0.15100
C221        C  0.37426169  0.43195638  0.37061043    -0.14500
C222        C  0.38185663  0.41959656  0.39950689    -0.29700
H223        H  0.39805727  0.41634252  0.35285456     0.14500
H224        H  0.36118371  0.43844845  0.41757238     0.15100
C225        C  0.22827552  0.53119954  0.26188394    -0.14500
C226        C  0.21185019  0.57157173  0.24774739    -0.29700
H227        H  0.22395124  0.49432559  0.25159075     0.14500
H228        H  0.21353061  0.60780664  0.25919211     0.15100
C229        C  0.06033945  0.42984953  0.11829313    -0.14500
C230        C  0.06446126  0.45239115  0.14557812    -0.29700
H231        H  0.08719519  0.43821024  0.10059536     0.14500
H232        H  0.03597832  0.44631354  0.16270154     0.15100
C233        C  0.07612755  0.12446613  0.39309143    -0.14500
C234        C  0.08370366  0.10825071  0.36445137    -0.29700
H235        H  0.09747595  0.10886918  0.41123516     0.14500
H236        H  0.06016287  0.12178986  0.34668249     0.15100
C237        C  0.96192328  0.29796648  0.00567076    -0.14500
C238        C  0.95828624  0.27011766  0.50130706    -0.29700
H239        H  0.96109323  0.32532668  0.98796114     0.14500
H240        H  0.95608929  0.24571048  0.52054055     0.15100
C241        C  0.84682105  0.20392503  0.13287817    -0.14500
C242        C  0.88470938  0.23189548  0.14323986    -0.29700
H243        H  0.83071272  0.21204852  0.11114504     0.14500
H244        H  0.90269139  0.22306528  0.16427586     0.15100
C245        C  0.62686565  0.12793505  0.12777150    -0.14500
C246        C  0.64656995  0.12944705  0.15547517    -0.29700
H247        H  0.64560332  0.10808307  0.10931520     0.14500
H248        H  0.62891106  0.15170472  0.17333202     0.15100
C249        C  0.58664155  0.19503303  0.36618724    -0.14500
C250        C  0.54311805  0.19915021  0.38117751    -0.29700
H251        H  0.60671540  0.22851654  0.35981921     0.14500
H252        H  0.52259940  0.16603210  0.38767927     0.15100
C253        C  0.79133882  0.11175959  0.41153900    -0.14500
C254        C  0.83696096  0.10356658  0.40014487    -0.29700
H255        H  0.78570942  0.14105853  0.42854984     0.14500
H256        H  0.84225144  0.07637919  0.38184517     0.15100
C257        C  0.76220532  0.05777372  0.26474169    -0.14500
C258        C  0.71593706  0.04597627  0.27388872    -0.29700
H259        H  0.78952750  0.07030252  0.28116015     0.14500
H260        H  0.68773482  0.03714583  0.25719865     0.15100
C261        C  0.11308362  0.90409973  0.12847375    -0.14500
C262        C  0.13660167  0.94138943  0.11438104    -0.29700
H263        H  0.12938850  0.88857056  0.14851248     0.14500
H264        H  0.12004813  0.95888753  0.09507174     0.15100
C265        C  0.07223915  0.67771074  0.12207060    -0.14500
C266        C  0.03474326  0.70133734  0.13648710    -0.29700
H267        H  0.08282742  0.68826952  0.09930797     0.14500
H268        H  0.02373092  0.69100685  0.15920086     0.15100
C269        C  0.87151644  0.92400868  0.13415371    -0.14500
C270        C  0.88109709  0.97276142  0.13853214    -0.29700
H271        H  0.83592430  0.90838131  0.14092430     0.14500
H272        H  0.91804454  0.98696462  0.13342125     0.15100
C273        C  0.12061996  0.62811779  0.37154207    -0.14500
C274        C  0.14702968  0.59309515  0.38529095    -0.29700
H275        H  0.13181712  0.63977854  0.34908827     0.14500
H276        H  0.13530699  0.57932909  0.40714965     0.15100
C277        C  0.07330247  0.84738287  0.38770349    -0.14500
C278        C  0.07689593  0.86507532  0.35961880    -0.29700
H279        H  0.09391661  0.86568678  0.40581854     0.14500
H280        H  0.05947957  0.84507513  0.34090179     0.15100
C281        C  0.99485204  0.76220667  0.49883122    -0.14500
C282        C  0.96024384  0.78610985  0.01312740    -0.29700
H283        H  0.02238847  0.74759074  0.51398818     0.14500
H284        H  0.92392119  0.78634491  0.00277601     0.15100
C285        C  0.59721931  0.36162818  0.15663028    -0.14500
C286        C  0.55066666  0.35560862  0.14655332    -0.29700
H287        H  0.62078946  0.32919467  0.15861088     0.14500
H288        H  0.52583022  0.38719639  0.14545867     0.15100
C289        C  0.80339971  0.47579994  0.12250514    -0.14500
C290        C  0.80812550  0.43891277  0.10171356    -0.29700
H291        H  0.83613911  0.49219388  0.13291634     0.14500
H292        H  0.77525722  0.42326430  0.09102810     0.15100
C293        C  0.85277908  0.33518430  0.36413804    -0.14500
C294        C  0.90119478  0.32905095  0.36992109    -0.29700
H295        H  0.82751365  0.30362597  0.36581819     0.14500
H296        H  0.92675572  0.36032777  0.36815285     0.15100
C297        C  0.65670925  0.43990563  0.40832674    -0.14500
C298        C  0.61389552  0.43357376  0.39341111    -0.29700
H299        H  0.66044319  0.42504722  0.43082637     0.14500
H300        H  0.61142659  0.44585855  0.37023755     0.15100
C301        C  0.87043735  0.58929968  0.39742957    -0.14500
C302        C  0.88446984  0.63094528  0.38313312    -0.29700
H303        H  0.88673178  0.58118485  0.41911056     0.14500
H304        H  0.86783480  0.63993535  0.36170373     0.15100
C305        C  0.75284977  0.48885439  0.26929776    -0.14500
C306        C  0.70698142  0.49965588  0.25978530    -0.29700
H307        H  0.78187371  0.47986666  0.25285293     0.14500
H308        H  0.67734510  0.50638995  0.27619729     0.15100
C309        C  0.38966847  0.84406168  0.13344556    -0.14500
C310        C  0.35592327  0.86860782  0.11740110    -0.29700
H311        H  0.40071219  0.85799479  0.15561864     0.14500
H312        H  0.34720481  0.85534440  0.09466988     0.15100
C313        C  0.33019863  0.63402359  0.13482090    -0.14500
C314        C  0.29737106  0.60473444  0.12010135    -0.29700
H315        H  0.32348540  0.64324110  0.15856113     0.14500
H316        H  0.30443896  0.59283051  0.09684379     0.15100
C317        C  0.58853619  0.61828525  0.14288789    -0.14500
C318        C  0.56549397  0.61881804  0.11612207    -0.29700
H319        H  0.57980491  0.64651045  0.16008009     0.14500
H320        H  0.57259424  0.58918575  0.09952279     0.15100
C321        C  0.29745903  0.93431065  0.38360620    -0.14500
C322        C  0.32962511  0.90518127  0.36812338    -0.29700
H323        H  0.30415197  0.94430060  0.40713539     0.14500
H324        H  0.32358058  0.89756124  0.34420572     0.15100
C325        C  0.39846165  0.69379291  0.36730768    -0.14500
C326        C  0.36490339  0.66681238  0.38258629    -0.29700
H327        H  0.41077476  0.68203933  0.34481391     0.14500
H328        H  0.35446639  0.67828119  0.40549750     0.15100
C329        C  0.57131158  0.91139867  0.38115289    -0.14500
C330        C  0.58915601  0.94883663  0.39855874    -0.29700
H331        H  0.58554246  0.90575485  0.35826472     0.14500
H332        H  0.57579354  0.95375624  0.42169148     0.15100
C333        C  0.46258426  0.77142793  0.48942929    -0.14500
C334        C  0.47786944  0.77739294  0.01597055    -0.29700
H335        H  0.46281359  0.73097865  0.49000865     0.14500
H336        H  0.47592729  0.81780806  0.01663732     0.15100
In337      In  0.46653903  0.81724687  0.90605524     1.36900
C338        C  0.43187250  0.73349553  0.88048486     0.79500
O339        O  0.50329083  0.76232473  0.93641801    -0.59000
O340        O  0.45728494  0.81781968  0.95676501    -0.49900
C341        C  0.54240258  0.87645141  0.88977593     0.72100
O342        O  0.53155766  0.83668989  0.87560842    -0.44700
C343        C  0.38984648  0.87169841  0.88945273     0.76900
O344        O  0.47182004  0.75361013  0.87144671    -0.56600
O345        O  0.40228646  0.86913610  0.91679411    -0.46700
O346        O  0.41124976  0.75565984  0.90267264    -0.53000
C347        C  0.48284932  0.77918546  0.96028862     0.87000
O348        O  0.51697686  0.88393761  0.91349642    -0.54900
O349        O  0.41740086  0.84824199  0.87112322    -0.58200
In350      In  0.43940041  0.73498119  0.59882466     1.36900
C351        C  0.40653991  0.81910248  0.62447778     0.79500
O352        O  0.47365873  0.79340191  0.56910955    -0.59000
O353        O  0.43400890  0.73347709  0.54818951    -0.49900
C354        C  0.51982922  0.68508408  0.61666933     0.72100
O355        O  0.49237523  0.70923812  0.63483543    -0.44700
C356        C  0.36183758  0.67330855  0.60789476     0.76900
O357        O  0.44441637  0.79715964  0.63405013    -0.56600
O358        O  0.38562694  0.67360602  0.58325154    -0.46700
O359        O  0.38653537  0.79835551  0.60179616    -0.53000
C360        C  0.45744550  0.77394098  0.54491950     0.87000
O361        O  0.50753264  0.68825362  0.58949035    -0.54900
O362        O  0.37881688  0.70285335  0.62767979    -0.58200
In363      In  0.78683981  0.47389630  0.85760559     1.36900
C364        C  0.70442013  0.46161237  0.89097750     0.79500
O365        O  0.74297273  0.50948708  0.82086706    -0.59000
O366        O  0.79296569  0.45180697  0.80808034    -0.49900
C367        C  0.84358985  0.54805301  0.88082937     0.72100
O368        O  0.83316048  0.50880462  0.89437934    -0.44700
C369        C  0.83131322  0.38575835  0.85981748     0.76900
O370        O  0.74716060  0.45631130  0.90139818    -0.56600
O371        O  0.85543864  0.42528316  0.85475364    -0.46700
O372        O  0.70387798  0.47761026  0.86448819    -0.53000
C373        C  0.75963907  0.48133469  0.79992699     0.87000
O374        O  0.82396247  0.55079112  0.85522152    -0.54900
O375        O  0.78504218  0.39120467  0.86158368    -0.58200
In376      In  0.64923239  0.51176404  0.67254817     1.36900
C377        C  0.73630072  0.49842408  0.64411923     0.79500
O378        O  0.66003602  0.54654541  0.71896062    -0.59000
O379        O  0.68587814  0.47304423  0.71149554    -0.49900
C380        C  0.59651806  0.59311384  0.66121553     0.72100
O381        O  0.63440951  0.58095730  0.64572095    -0.44700
C382        C  0.58527123  0.44186504  0.65283245     0.76900
O383        O  0.70056080  0.46825298  0.64185174    -0.56600
O384        O  0.59656714  0.44607681  0.68044446    -0.46700
O385        O  0.72682214  0.53728975  0.65959825    -0.53000
C386        C  0.68266484  0.51002953  0.72947708     0.87000
O387        O  0.58727594  0.56513106  0.68309078    -0.54900
O388        O  0.60512121  0.47392216  0.63624007    -0.58200
In389      In  0.00708271  0.71584905  0.90978448     1.36900
C390        C  0.04172853  0.80169827  0.88907647     0.79500
O391        O  0.96501184  0.75374401  0.94865699    -0.59000
O392        O  0.03357317  0.71854756  0.95730515    -0.49900
C393        C  0.92718992  0.66278290  0.89380651     0.72100
O394        O  0.93413017  0.70687842  0.88527574    -0.44700
C395        C  0.07839980  0.65895453  0.88568236     0.76900
O396        O  0.00314669  0.78134635  0.87831477    -0.56600
O397        O  0.06429405  0.65448312  0.91280867    -0.46700
O398        O  0.06079002  0.77889498  0.91056475    -0.53000
C399        C  0.99832637  0.74464542  0.96758019     0.87000
O400        O  0.95953402  0.64733500  0.91164956    -0.54900
O401        O  0.05468854  0.69040253  0.87106118    -0.58200
In402      In  0.98544237  0.85100479  0.59655020     1.36900
C403        C  0.00629451  0.76771679  0.62562045     0.79500
O404        O  0.93621644  0.83459908  0.55623578    -0.59000
O405        O  0.01399954  0.82544021  0.55121215    -0.49900
C406        C  0.91068199  0.90778803  0.61626308     0.72100
O407        O  0.90647460  0.86095878  0.61411031    -0.44700
C408        C  0.06655478  0.90627640  0.60596435     0.76900
O409        O  0.98847175  0.80535305  0.63929923    -0.56600
O410        O  0.04096151  0.91034882  0.58245534    -0.46700
O411        O  0.00864301  0.77152413  0.59738327    -0.53000
C412        C  0.97186440  0.82086990  0.53939148     0.87000
O413        O  0.95204510  0.92470231  0.60767930    -0.54900
O414        O  0.05055815  0.87426898  0.62408488    -0.58200
In415      In  0.66739126  0.07523581  0.85692741     1.36900
C416        C  0.74702136  0.09285361  0.89070661     0.79500
O417        O  0.64948978  0.06380673  0.80732616    -0.62200
O418        O  0.72470169  0.07422103  0.81947682    -0.49900
C419        C  0.62063299  0.99578100  0.88034748     0.72100
O420        O  0.63498176  0.99669757  0.85314182    -0.44700
C421        C  0.61471471  0.15925611  0.86003487     0.76900
O422        O  0.70691786  0.11600166  0.89420503    -0.56600
O423        O  0.59528176  0.11736459  0.86499467    -0.46700
O424        O  0.74555750  0.05745194  0.87142370    -0.53000
C425        C  0.69399686  0.06789570  0.79847867     0.87000
O426        O  0.63202590  0.03415661  0.89556025    -0.54900
O427        O  0.65913653  0.15740106  0.85125842    -0.58200
In428      In  0.78649987  0.09817870  0.66553761     1.36900
C429        C  0.69737369  0.11847430  0.64468580     0.79500
O430        O  0.74419203  0.06218875  0.70362317    -0.59000
O431        O  0.80032968  0.11489492  0.71487606    -0.49900
C432        C  0.84700271  0.02384055  0.64964039     0.72100
O433        O  0.80077964  0.02068950  0.64573915    -0.44700
C434        C  0.82976798  0.17633981  0.63988561     0.76900
O435        O  0.72342652  0.08366018  0.63338043    -0.56600
O436        O  0.82984459  0.17080877  0.66816184    -0.46700
O437        O  0.71665359  0.14160820  0.66678851    -0.53000
C438        C  0.76640910  0.08633931  0.72421245     0.87000
O439        O  0.86123301  0.06340666  0.66263473    -0.54900
O440        O  0.80836612  0.14198530  0.62516513    -0.58200
In441      In  0.95255478  0.20167089  0.90868590     1.36900
C442        C  0.92146317  0.28344075  0.88143773     0.79500
O443        O  0.91733968  0.13647862  0.88396042    -0.59000
O444        O  0.88052529  0.16509866  0.92304218    -0.49900
C445        C  0.03450628  0.15864136  0.88647856     0.72100
O446        O  0.00363913  0.17994233  0.87010684    -0.44700
C447        C  0.96363606  0.23188274  0.96616943     0.76900
O448        O  0.96663065  0.27630739  0.88701712    -0.56600
O449        O  0.95763090  0.18669192  0.95859958    -0.46700
O450        O  0.89310325  0.24801700  0.88859109    -0.53000
C451        C  0.87996314  0.13421441  0.90115365     0.87000
O452        O  0.02512416  0.16184458  0.91441768    -0.54900
O453        O  0.96646445  0.26104408  0.94428594    -0.58200
In454      In  0.92399577  0.37868597  0.59087562     1.36900
C455        C  0.89677587  0.29847371  0.62148266     0.79500
O456        O  0.87834120  0.43462864  0.61825675    -0.59000
O457        O  0.84713270  0.40309644  0.57863591    -0.49900
C458        C  0.00520042  0.43250857  0.60338948     0.72100
O459        O  0.97805160  0.44043209  0.58104567    -0.44700
C460        C  0.94756084  0.34195818  0.53620768     0.76900
O461        O  0.92802834  0.32950082  0.63178523    -0.56600
O462        O  0.92758614  0.38397966  0.54021684    -0.46700
O463        O  0.88076137  0.30825471  0.59567938    -0.53000
C464        C  0.84088206  0.43070722  0.60163166     0.87000
O465        O  0.99119370  0.39658702  0.61938637    -0.54900
O466        O  0.95790622  0.31991563  0.56020523    -0.58200
In467      In  0.15234122  0.59041007  0.66084407     1.36900
C468        C  0.23940784  0.62892667  0.64386126     0.79500
O469        O  0.11748640  0.62970192  0.62275102    -0.59000
O470        O  0.08983344  0.64638764  0.66687537    -0.49900
C471        C  0.10279142  0.50744145  0.64647296     0.72100
O472        O  0.13527676  0.52568819  0.62902923    -0.44700
C473        C  0.18043985  0.58044395  0.71750847     0.76900
O474        O  0.22565121  0.58629099  0.63426656    -0.56600
O475        O  0.15096678  0.61397375  0.70950782    -0.46700
O476        O  0.20860527  0.65082264  0.66093840    -0.53000
C477        C  0.08755351  0.65456497  0.63893281     0.87000
O478        O  0.09848265  0.52947780  0.67176401    -0.54900
O479        O  0.19353132  0.55001690  0.69671091    -0.58200
In480      In  0.28051935  0.55295932  0.84604555     1.36900
C481        C  0.19386338  0.57943021  0.87113996     0.79500
O482        O  0.31174926  0.60041258  0.88315498    -0.59000
O483        O  0.34306089  0.60987774  0.83953792    -0.49900
C484        C  0.33509931  0.47356220  0.85845498     0.72100
O485        O  0.29937604  0.48780139  0.87516198    -0.44700
C486        C  0.24614571  0.54385030  0.78992103     0.76900
O487        O  0.21401810  0.53841443  0.87692038    -0.56600
O488        O  0.26589234  0.58332252  0.80024402    -0.46700
O489        O  0.21774233  0.60559455  0.85266315    -0.53000
C490        C  0.34248565  0.62346798  0.86705154     0.87000
O491        O  0.34090001  0.49810215  0.83468506    -0.54900
O492        O  0.24591571  0.50790818  0.80781993    -0.58200
In493      In  0.26510635  0.00046710  0.66420483     1.36900
C494        C  0.18409792  0.95432577  0.64502421     0.79500
O495        O  0.29716588  0.96050471  0.62392830    -0.59000
O496        O  0.32262784  0.94042682  0.66740310    -0.49900
C497        C  0.31249786  0.08465930  0.65076222     0.72100
O498        O  0.26697298  0.07856964  0.64511954    -0.44700
C499        C  0.23541200  0.01236705  0.72123041     0.76900
O500        O  0.19871632  0.99465409  0.63333984    -0.56600
O501        O  0.27560665  0.99100747  0.71401973    -0.46700
O502        O  0.21096733  0.93848985  0.66578143    -0.53000
C503        C  0.32431345  0.93256733  0.63911212     0.87000
O504        O  0.33214763  0.04898290  0.66406900    -0.54900
O505        O  0.21227006  0.03035209  0.69949415    -0.58200
In506      In  0.18963298  0.98546527  0.86262214     1.36900
C507        C  0.27243357  0.94947438  0.88451326     0.79500
O508        O  0.15378436  0.94123404  0.89909798    -0.59000
O509        O  0.13392514  0.92317092  0.85395776    -0.49900
C510        C  0.14191914  0.06817981  0.87943626     0.72100
O511        O  0.17965735  0.05343401  0.89306884    -0.44700
C512        C  0.22306787  0.00162378  0.80684552     0.76900
O513        O  0.25451893  0.99037868  0.89403819    -0.56600
O514        O  0.18096736  0.98254752  0.81200817    -0.46700
O515        O  0.24788143  0.92744292  0.86396555    -0.53000
C516        C  0.12885855  0.91366756  0.88161614     0.87000
O517        O  0.13048166  0.04218038  0.85653197    -0.54900
O518        O  0.24719132  0.01373304  0.83008425    -0.58200
In519      In  0.50328340  0.34555069  0.92046147     1.36900
C520        C  0.52927670  0.25992322  0.89285165     0.79500
O521        O  0.53619040  0.40222884  0.88934755    -0.59000
O522        O  0.57618555  0.38594613  0.92879799    -0.49900
C523        C  0.41911676  0.39022379  0.90434543     0.72100
O524        O  0.44560550  0.36527593  0.88601088    -0.44700
C525        C  0.49984588  0.32140939  0.97884300     0.76900
O526        O  0.48516668  0.26870909  0.90102938    -0.56600
O527        O  0.48840394  0.29131394  0.95774395    -0.46700
O528        O  0.55928605  0.29504945  0.89829579    -0.53000
C529        C  0.57469487  0.40986000  0.90459503     0.87000
O530        O  0.43408961  0.39007385  0.93119412    -0.54900
O531        O  0.51172187  0.36440919  0.97022201    -0.58200
In532      In  0.49468536  0.23085058  0.61485004     1.36900
C533        C  0.51248603  0.32027912  0.64042023     0.79500
O534        O  0.54520047  0.21108320  0.65229166    -0.59000
O535        O  0.56246387  0.18250061  0.60827446    -0.49900
C536        C  0.42495115  0.16347443  0.62732420     0.72100
O537        O  0.41763899  0.20947098  0.63221342    -0.44700
C538        C  0.48177671  0.25382849  0.55720443     0.76900
O539        O  0.48550733  0.28818308  0.65322640    -0.56600
O540        O  0.52296496  0.24005629  0.56734872    -0.46700
O541        O  0.52668282  0.30775038  0.61415862    -0.53000
C542        C  0.57426088  0.18567082  0.63581091     0.87000
O543        O  0.46626449  0.15310698  0.61537616    -0.54900
O544        O  0.44657311  0.25376571  0.57627645    -0.58200
C545        C  0.49977585  0.30765219  0.01103941    -0.14500
C546        C  0.47534127  0.27042588  0.52584768    -0.29700
H547        H  0.50079921  0.33742750  0.02806619     0.14500
H548        H  0.43792045  0.27383468  0.51730717     0.15100
C549        C  0.34180014  0.12878424  0.64178029    -0.14500
C550        C  0.39048647  0.12329410  0.63588447    -0.29700
H551        H  0.32375726  0.16437195  0.63890684     0.14500
H552        H  0.40654978  0.08632350  0.63682831     0.15100
C553        C  0.24392375  0.00730584  0.77624826    -0.14500
C554        C  0.21507613  0.01360871  0.75223879    -0.29700
H555        H  0.28398880  0.00584691  0.77340386     0.14500
H556        H  0.17531356  0.01841010  0.75530986     0.15100
C557        C  0.36966439  0.43349791  0.86645774    -0.14500
C558        C  0.37585183  0.41979590  0.89523515    -0.29700
H559        H  0.39517320  0.41994512  0.84899083     0.14500
H560        H  0.35246349  0.43588999  0.91302168     0.15100
C561        C  0.22432214  0.54053447  0.75950773    -0.14500
C562        C  0.19985815  0.57946063  0.74849860    -0.29700
H563        H  0.22699413  0.50578374  0.74654559     0.14500
H564        H  0.19455519  0.61265119  0.76267829     0.15100
C565        C  0.04874031  0.46425638  0.61029723    -0.14500
C566        C  0.06941176  0.46601788  0.63775528    -0.29700
H567        H  0.06030482  0.49103369  0.59350109     0.14500
H568        H  0.05494136  0.44239052  0.65546592     0.15100
C569        C  0.07546883  0.12882068  0.87352710    -0.14500
C570        C  0.11123324  0.10996583  0.89065466    -0.29700
H571        H  0.07324190  0.11803542  0.84974810     0.14500
H572        H  0.11474692  0.12185530  0.91417457     0.15100
C573        C  0.95578606  0.31975791  0.50575885    -0.14500
C574        C  0.96478848  0.24924880  0.99813103    -0.29700
H575        H  0.95434488  0.34406972  0.48648768     0.14500
H576        H  0.96380394  0.22155249  0.01564954     0.15100
C577        C  0.85131409  0.21956084  0.62447680    -0.14500
C578        C  0.87945689  0.25456166  0.63823578    -0.29700
H579        H  0.84315341  0.22268031  0.60059972     0.14500
H580        H  0.88922154  0.25124812  0.66184543     0.15100
C581        C  0.61922418  0.16372326  0.64825992    -0.14500
C582        C  0.64896771  0.13259755  0.63247063    -0.29700
H583        H  0.62914067  0.17534044  0.67110911     0.14500
H584        H  0.63871729  0.11920492  0.61003430     0.15100
C585        C  0.59034318  0.20738735  0.86632729    -0.14500
C586        C  0.54533321  0.21170306  0.87942028    -0.29700
H587        H  0.61290512  0.24061477  0.86314843     0.14500
H588        H  0.52186867  0.17908022  0.88239341     0.15100
C589        C  0.79241376  0.10994851  0.90615353    -0.14500
C590        C  0.83757331  0.10095002  0.89427607    -0.29700
H591        H  0.78817388  0.13834935  0.92386543     0.14500
H592        H  0.84154957  0.07478861  0.87532505     0.15100
C593        C  0.75332884  0.08286764  0.75662925    -0.14500
C594        C  0.70864043  0.06636517  0.76613823    -0.29700
H595        H  0.77970168  0.09769152  0.77296887     0.14500
H596        H  0.68111159  0.05436479  0.74971211     0.15100
C597        C  0.11145863  0.93645557  0.61217429    -0.14500
C598        C  0.13903444  0.92671441  0.63636200    -0.29700
H599        H  0.12195154  0.96611530  0.59703655     0.14500
H600        H  0.12854584  0.89600976  0.65076024     0.15100
C601        C  0.05466483  0.69124495  0.62532505    -0.14500
C602        C  0.02728463  0.72461530  0.64119570    -0.29700
H603        H  0.05701032  0.69371827  0.60086389     0.14500
H604        H  0.02561725  0.72366570  0.66571319     0.15100
C605        C  0.87109998  0.94081786  0.62813981    -0.14500
C606        C  0.88309853  0.98638287  0.63898985    -0.29700
H607        H  0.83284982  0.92783350  0.62839145     0.14500
H608        H  0.92193118  0.99749567  0.63988230     0.15100
C609        C  0.12095190  0.63271496  0.87176638    -0.14500
C610        C  0.14678023  0.59680284  0.88508258    -0.29700
H611        H  0.13308761  0.64567738  0.84976631     0.14500
H612        H  0.13440114  0.58168655  0.90646839     0.15100
C613        C  0.06455016  0.84736165  0.87704012    -0.14500
C614        C  0.09875063  0.87235940  0.89329763    -0.29700
H615        H  0.05489051  0.85927013  0.85457624     0.14500
H616        H  0.10621270  0.86127561  0.91627445     0.15100
C617        C  0.99909022  0.76470217  0.99883958    -0.14500
C618        C  0.96520305  0.79934053  0.50871460    -0.29700
H619        H  0.03402610  0.76179619  0.01070231     0.14500
H620        H  0.93574163  0.81300114  0.49463438     0.15100
C621        C  0.55472807  0.40127320  0.63952259    -0.14500
C622        C  0.52992956  0.36692589  0.65550956    -0.29700
H623        H  0.55610422  0.39743309  0.61501485     0.14500
H624        H  0.52685222  0.37069470  0.67994568     0.15100
C625        C  0.78604388  0.48721390  0.63150510    -0.14500
C626        C  0.79223362  0.45268457  0.60937075    -0.29700
H627        H  0.81807937  0.50470616  0.64208841     0.14500
H628        H  0.75996196  0.43699978  0.59804020     0.15100
C629        C  0.85396811  0.33693730  0.86504509    -0.14500
C630        C  0.90278332  0.33054216  0.86926489    -0.29700
H631        H  0.82856506  0.30595875  0.86861025     0.14500
H632        H  0.92854671  0.36138611  0.86631403     0.15100
C633        C  0.65942655  0.44523803  0.90736605    -0.14500
C634        C  0.61562289  0.44139618  0.89333412    -0.29700
H635        H  0.66394478  0.42915225  0.92947367     0.14500
H636        H  0.61159140  0.45664719  0.87095191     0.15100
C637        C  0.87806182  0.58540860  0.89397619    -0.14500
C638        C  0.88613138  0.63073874  0.88255963    -0.29700
H639        H  0.89917630  0.57401859  0.91340410     0.14500
H640        H  0.86433519  0.64322617  0.86370332     0.15100
C641        C  0.74029627  0.48097033  0.76866700    -0.14500
C642        C  0.70368704  0.51144511  0.76027836    -0.29700
H643        H  0.75544705  0.45394954  0.75246100     0.14500
H644        H  0.68966935  0.53952993  0.77618635     0.15100
C645        C  0.38594808  0.86451319  0.63903052    -0.14500
C646        C  0.35303257  0.89222746  0.62442352    -0.29700
H647        H  0.39615688  0.87398880  0.66214352     0.14500
H648        H  0.34475052  0.88344699  0.60090631     0.15100
C649        C  0.31679426  0.64254794  0.61315499    -0.14500
C650        C  0.28760106  0.65281263  0.63727740    -0.29700
H651        H  0.30603383  0.61416945  0.59658164     0.14500
H652        H  0.29790981  0.68331559  0.65255914     0.15100
C653        C  0.56349431  0.63488266  0.65394829    -0.14500
C654        C  0.56136034  0.65335531  0.62601440    -0.29700
H655        H  0.53583425  0.64601291  0.67080303     0.14500
H656        H  0.58679242  0.63965421  0.60854726     0.15100
C657        C  0.31858087  0.92875259  0.89629442    -0.14500
C658        C  0.34557336  0.89739981  0.87895373    -0.29700
H659        H  0.33058456  0.93945842  0.91888733     0.14500
H660        H  0.33436901  0.88944069  0.85580432     0.15100
C661        C  0.40951960  0.68851050  0.86602425    -0.14500
C662        C  0.37251302  0.66438386  0.88026334    -0.29700
H663        H  0.42198625  0.67639824  0.84362927     0.14500
H664        H  0.36211532  0.67622539  0.90311221     0.15100
C665        C  0.57960775  0.91253141  0.87828241    -0.14500
C666        C  0.59073162  0.95498566  0.89352480    -0.29700
H667        H  0.59550676  0.90565555  0.85591788     0.14500
H668        H  0.57512365  0.96146684  0.91601390     0.15100
C669        C  0.48532491  0.75331502  0.98942765    -0.14500
C670        C  0.46311509  0.79806418  0.51540587    -0.29700
H671        H  0.49096631  0.71328052  0.98893096     0.14500
H672        H  0.46660899  0.83838548  0.51500039     0.15100
loop_ 
_geom_bond_atom_site_label_1 
_geom_bond_atom_site_label_2 
_geom_bond_distance 
_geom_bond_site_symmetry_2 
_ccdc_geom_bond_type 
In1           O3   2.243       .  S
In1           O4   2.262       .  S
In1          O12   2.258       .  S
In1           O6   2.252       .  S
In1           O8   2.259       .  S
In1           O9   2.282       .  S
In1          O10   2.222       .  S
In1          O13   2.239       .  S
C2            O8   1.264       .  A
C2           O10   1.263       .  A
C2          C325   1.475       .  S
O3           C11   1.260       .  A
O4           C11   1.265       .  A
C5           O12   1.260       .  A
C5            O6   1.259       .  A
C5          C329   1.475       .  S
C7            O9   1.263       .  A
C7           O13   1.255       .  A
C7          C322   1.477       .  S
C11         C333   1.475       .  S
In14         O16   2.245       .  S
In14         O17   2.265       .  S
In14         O25   2.241       .  S
In14         O19   2.269       .  S
In14         O21   2.266       .  S
In14         O22   2.282       .  S
In14         O23   2.224       .  S
In14         O26   2.228       .  S
C15          O21   1.269       .  A
C15          O23   1.264       .  A
C15         C309   1.481       .  S
O16          C24   1.261       .  A
O17          C24   1.267       .  A
C18          O25   1.259       .  A
C18          O19   1.265       .  A
C18         C318   1.480       .  S
C20          O22   1.267       .  A
C20          O26   1.258       .  A
C20         C313   1.479       .  S
C24         C334   1.478       .  S
In27         O29   2.255       .  S
In27         O30   2.253       .  S
In27         O38   2.294       .  S
In27         O32   2.259       .  S
In27         O34   2.263       .  S
In27         O35   2.272       .  S
In27         O36   2.262       .  S
In27         O39   2.250       .  S
C28          O34   1.258       .  A
C28          O36   1.260       .  A
C28         C297   1.480       .  S
O29          C37   1.263       .  A
O30          C37   1.263       .  A
C31          O38   1.259       .  A
C31          O32   1.255       .  A
C31         C301   1.483       .  S
C33          O35   1.261       .  A
C33          O39   1.257       .  A
C33         C293   1.478       .  S
C37         C305   1.479       .  S
In40         O42   2.259       .  S
In40         O43   2.254       .  S
In40         O51   2.259       .  S
In40         O45   2.266       .  S
In40         O47   2.240       .  S
In40         O48   2.277       .  S
In40         O49   2.261       .  S
In40         O52   2.242       .  S
C41          O47   1.260       .  A
C41          O49   1.261       .  A
C41         C289   1.475       .  S
O42          C50   1.262       .  A
O43          C50   1.260       .  A
C44          O51   1.258       .  A
C44          O45   1.260       .  A
C44         C317   1.481       .  S
C46          O48   1.260       .  A
C46          O52   1.256       .  A
C46         C285   1.473       .  S
C50         C306   1.479       .  S
In53         O55   2.260   1_455  S
In53         O56   2.230       .  S
In53         O64   2.251   1_455  S
In53         O58   2.270   1_455  S
In53         O60   2.279       .  S
In53         O61   2.273       .  S
In53         O62   2.227       .  S
In53         O65   2.234       .  S
C54          O60   1.267       .  A
C54          O62   1.257       .  A
C54         C277   1.475       .  S
O55          C63   1.265       .  A
O56          C63   1.263   1_455  A
C57          O64   1.261       .  A
C57          O58   1.263       .  A
C57         C302   1.486       .  S
C59          O61   1.263       .  A
C59          O65   1.257       .  A
C59         C273   1.474       .  S
C63         C281   1.475       .  S
In66         O68   2.268       .  S
In66         O69   2.234   1_655  S
In66         O77   2.238       .  S
In66         O71   2.271       .  S
In66         O73   2.268       .  S
In66         O74   2.271   1_655  S
In66         O75   2.223   1_655  S
In66         O78   2.228   1_655  S
C67          O73   1.264   1_455  A
C67          O75   1.259       .  A
C67         C266   1.475       .  S
O68          C76   1.261       .  A
O69          C76   1.260   1_455  A
C70          O77   1.261       .  A
C70          O71   1.262       .  A
C70         C269   1.481       .  S
C72          O74   1.264       .  A
C72          O78   1.258       .  A
C72         C261   1.471       .  S
C76         C282   1.476       .  S
In79         O81   2.251       .  S
In79         O82   2.255       .  S
In79         O90   2.257       .  S
In79         O84   2.257   1_545  S
In79         O86   2.234       .  S
In79         O87   2.266       .  S
In79         O88   2.257       .  S
In79         O91   2.244       .  S
C80          O86   1.258       .  A
C80          O88   1.263       .  A
C80         C253   1.471       .  S
O81          C89   1.261       .  A
O82          C89   1.260       .  A
C83          O90   1.257   1_565  A
C83          O84   1.259       .  A
C83         C330   1.476       .  S
C85          O87   1.259       .  A
C85          O91   1.258       .  A
C85         C249   1.473       .  S
C89         C258   1.474       .  S
In92         O94   2.241       .  S
In92         O95   2.250       .  S
In92        O103   2.223       .  S
In92         O97   2.284       .  S
In92         O99   2.262       .  S
In92        O100   2.262       .  S
In92        O101   2.217       .  S
In92        O104   2.220       .  S
C93          O99   1.268       .  A
C93         O101   1.260       .  A
C93         C246   1.469       .  S
O94         C102   1.262       .  A
O95         C102   1.263       .  A
C96         O103   1.256       .  A
C96          O97   1.265       .  A
C96         C270   1.474   1_545  S
C98         O100   1.266       .  A
C98         O104   1.259       .  A
C98         C241   1.469       .  S
C102        C257   1.474       .  S
In105       O107   2.252       .  S
In105       O108   2.252       .  S
In105       O116   2.258   1_655  S
In105       O110   2.258   1_655  S
In105       O112   2.265       .  S
In105       O113   2.256       .  S
In105       O114   2.250       .  S
In105       O117   2.255       .  S
C106        O112   1.262       .  A
C106        O114   1.260       .  A
C106        C294   1.480       .  S
O107        C115   1.259       .  A
O108        C115   1.262       .  A
C109        O116   1.259       .  A
C109        O110   1.262       .  A
C109        C233   1.480       .  S
C111        O113   1.259       .  A
C111        O117   1.261       .  A
C111        C238   1.476       .  S
C115        C254   1.474       .  S
In118       O120   2.270       .  S
In118       O121   2.252       .  S
In118       O129   2.268       .  S
In118       O123   2.254   1_655  S
In118       O125   2.276       .  S
In118       O126   2.239       .  S
In118       O127   2.230       .  S
In118       O130   2.265       .  S
C119        O125   1.260       .  A
C119        O127   1.257       .  A
C119        C242   1.476       .  S
O120        C128   1.258       .  A
O121        C128   1.254       .  A
C122        O129   1.262   1_455  A
C122        O123   1.259       .  A
C122        C229   1.481       .  S
C124        O126   1.262       .  A
C124        O130   1.265       .  A
C124        C237   1.478       .  S
C128        C290   1.473       .  S
In131       O133   2.240       .  S
In131       O134   2.266       .  S
In131       O142   2.243       .  S
In131       O136   2.269       .  S
In131       O138   2.275       .  S
In131       O139   2.239       .  S
In131       O140   2.243       .  S
In131       O143   2.256       .  S
C132        O138   1.264       .  A
C132        O140   1.261       .  A
C132        C314   1.483       .  S
O133        C141   1.256       .  A
O134        C141   1.260       .  A
C135        O142   1.258       .  A
C135        O136   1.264       .  A
C135        C230   1.480       .  S
C137        O139   1.262       .  A
C137        O143   1.264       .  A
C137        C226   1.475       .  S
C141        C265   1.470       .  S
In144       O146   2.225       .  S
In144       O147   2.273       .  S
In144       O155   2.253       .  S
In144       O149   2.264       .  S
In144       O151   2.272       .  S
In144       O152   2.238       .  S
In144       O153   2.229       .  S
In144       O156   2.259       .  S
C145        O151   1.264       .  A
C145        O153   1.259       .  A
C145        C274   1.478       .  S
O146        C154   1.256       .  A
O147        C154   1.263       .  A
C148        O155   1.261       .  A
C148        O149   1.263       .  A
C148        C221   1.481       .  S
C150        O152   1.262       .  A
C150        O156   1.263       .  A
C150        C225   1.476       .  S
C154        C326   1.470       .  S
In157       O159   2.240       .  S
In157       O160   2.279       .  S
In157       O168   2.253   1_565  S
In157       O162   2.261   1_565  S
In157       O164   2.266   1_565  S
In157       O165   2.263       .  S
In157       O166   2.223       .  S
In157       O169   2.247   1_565  S
C158        O164   1.265   1_565  A
C158        O166   1.263       .  A
C158        C262   1.478       .  S
O159        C167   1.257       .  A
O160        C167   1.262       .  A
C161        O168   1.259       .  A
C161        O162   1.258       .  A
C161        C213   1.476       .  S
C163        O165   1.263   1_545  A
C163        O169   1.259       .  A
C163        C218   1.476       .  S
C167        C310   1.476       .  S
In170       O172   2.254       .  S
In170       O173   2.272       .  S
In170       O181   2.250   1_565  S
In170       O175   2.278   1_565  S
In170       O177   2.264       .  S
In170       O178   2.251       .  S
In170       O179   2.240       .  S
In170       O182   2.259   1_565  S
C171        O177   1.264       .  A
C171        O179   1.262       .  A
C171        C321   1.480       .  S
O172        C180   1.258       .  A
O173        C180   1.258       .  A
C174        O181   1.257       .  A
C174        O175   1.261       .  A
C174        C234   1.479       .  S
C176        O178   1.262   1_545  A
C176        O182   1.261       .  A
C176        C217   1.478       .  S
C180        C278   1.481       .  S
In183       O185   2.238       .  S
In183       O186   2.272       .  S
In183       O194   2.261       .  S
In183       O188   2.261       .  S
In183       O190   2.280       .  S
In183       O191   2.269       .  S
In183       O192   2.237       .  S
In183       O195   2.246       .  S
C184        O190   1.260       .  A
C184        O192   1.255       .  A
C184        C250   1.478       .  S
O185        C193   1.259       .  A
O186        C193   1.264       .  A
C187        O194   1.261       .  A
C187        O188   1.261       .  A
C187        C222   1.481       .  S
C189        O191   1.263       .  A
C189        O195   1.260       .  A
C189        C209   1.479       .  S
C193        C298   1.477       .  S
In196       O198   2.239       .  S
In196       O199   2.264       .  S
In196       O207   2.261       .  S
In196       O201   2.265       .  S
In196       O203   2.272       .  S
In196       O204   2.253       .  S
In196       O205   2.228       .  S
In196       O208   2.260       .  S
C197        O203   1.265       .  A
C197        O205   1.261       .  A
C197        C286   1.478       .  S
O198        C206   1.259       .  A
O199        C206   1.260       .  A
C200        O207   1.255       .  A
C200        O201   1.257       .  A
C200        C214   1.475       .  S
C202        O204   1.261       .  A
C202        O208   1.261       .  A
C202        C210   1.479       .  S
C206        C245   1.476       .  S
C209        H211   1.087       .  S
C209        C546   1.345       .  D
C210        H212   1.087       .  S
C210        C545   1.346       .  D
C213        H215   1.087       .  S
C213        C214   1.343       .  D
C214        H216   1.087       .  S
C217        H219   1.087       .  S
C217        C218   1.341       .  D
C218        H220   1.087       .  S
C221        H223   1.087       .  S
C221        C222   1.346       .  D
C222        H224   1.087       .  S
C225        H227   1.087       .  S
C225        C226   1.344       .  D
C226        H228   1.088       .  S
C229        H231   1.086       .  S
C229        C230   1.344       .  D
C230        H232   1.087       .  S
C233        H235   1.086       .  S
C233        C234   1.345       .  D
C234        H236   1.086       .  S
C237        H239   1.087   1_554  S
C237        C574   1.345   1_554  D
C238        H240   1.087       .  S
C238        C573   1.345       .  D
C241        H243   1.087       .  S
C241        C242   1.342       .  D
C242        H244   1.086       .  S
C245        H247   1.087       .  S
C245        C246   1.341       .  D
C246        H248   1.087       .  S
C249        H251   1.087       .  S
C249        C250   1.345       .  D
C250        H252   1.087       .  S
C253        H255   1.087       .  S
C253        C254   1.341       .  D
C254        H256   1.087       .  S
C257        H259   1.087       .  S
C257        C258   1.345       .  D
C258        H260   1.087       .  S
C261        H263   1.087       .  S
C261        C262   1.343       .  D
C262        H264   1.086       .  S
C265        H267   1.087       .  S
C265        C266   1.344       .  D
C266        H268   1.086       .  S
C269        H271   1.086       .  S
C269        C270   1.343       .  D
C270        H272   1.087       .  S
C273        H275   1.087       .  S
C273        C274   1.344       .  D
C274        H276   1.086       .  S
C277        H279   1.087       .  S
C277        C278   1.343       .  D
C278        H280   1.086       .  S
C281        H283   1.087   1_655  S
C281        C618   1.344       .  D
C282        H284   1.086       .  S
C282        C617   1.343   1_554  D
C285        H287   1.087       .  S
C285        C286   1.344       .  D
C286        H288   1.086       .  S
C289        H291   1.086       .  S
C289        C290   1.342       .  D
C290        H292   1.087       .  S
C293        H295   1.087       .  S
C293        C294   1.345       .  D
C294        H296   1.086       .  S
C297        H299   1.087       .  S
C297        C298   1.344       .  D
C298        H300   1.087       .  S
C301        H303   1.087       .  S
C301        C302   1.347       .  D
C302        H304   1.086       .  S
C305        H307   1.087       .  S
C305        C306   1.346       .  D
C306        H308   1.087       .  S
C309        H311   1.086       .  S
C309        C310   1.345       .  D
C310        H312   1.087       .  S
C313        H315   1.087       .  S
C313        C314   1.344       .  D
C314        H316   1.086       .  S
C317        H319   1.087       .  S
C317        C318   1.344       .  D
C318        H320   1.087       .  S
C321        H323   1.086       .  S
C321        C322   1.343       .  D
C322        H324   1.087       .  S
C325        H327   1.086       .  S
C325        C326   1.341       .  D
C326        H328   1.087       .  S
C329        H331   1.087       .  S
C329        C330   1.343       .  D
C330        H332   1.087       .  S
C333        H335   1.087       .  S
C333        C670   1.340       .  D
C334        H336   1.087       .  S
C334        C669   1.342   1_554  D
In337       O339   2.258       .  S
In337       O340   2.255       .  S
In337       O348   2.262       .  S
In337       O342   2.264       .  S
In337       O344   2.273       .  S
In337       O345   2.270       .  S
In337       O346   2.222       .  S
In337       O349   2.226       .  S
C338        O344   1.266       .  A
C338        O346   1.262       .  A
C338        C661   1.482       .  S
O339        C347   1.262       .  A
O340        C347   1.263       .  A
C341        O348   1.260       .  A
C341        O342   1.260       .  A
C341        C665   1.483       .  S
C343        O345   1.263       .  A
C343        O349   1.255       .  A
C343        C658   1.468       .  S
C347        C669   1.481       .  S
In350       O352   2.256       .  S
In350       O353   2.246       .  S
In350       O361   2.260       .  S
In350       O355   2.274       .  S
In350       O357   2.263       .  S
In350       O358   2.287       .  S
In350       O359   2.228       .  S
In350       O362   2.241       .  S
C351        O357   1.264       .  A
C351        O359   1.262       .  A
C351        C645   1.475       .  S
O352        C360   1.262       .  A
O353        C360   1.263       .  A
C354        O361   1.256       .  A
C354        O355   1.259       .  A
C354        C654   1.480       .  S
C356        O358   1.259       .  A
C356        O362   1.256       .  A
C356        C649   1.483       .  S
C360        C670   1.477       .  S
In363       O365   2.255       .  S
In363       O366   2.262       .  S
In363       O374   2.292       .  S
In363       O368   2.247       .  S
In363       O370   2.260       .  S
In363       O371   2.271       .  S
In363       O372   2.256       .  S
In363       O375   2.231       .  S
C364        O370   1.256       .  A
C364        O372   1.258       .  A
C364        C633   1.476       .  S
O365        C373   1.263       .  A
O366        C373   1.263       .  A
C367        O374   1.260       .  A
C367        O368   1.253       .  A
C367        C637   1.477       .  S
C369        O371   1.264       .  A
C369        O375   1.258       .  A
C369        C629   1.474       .  S
C373        C641   1.484       .  S
In376       O378   2.258       .  S
In376       O379   2.272       .  S
In376       O387   2.246       .  S
In376       O381   2.267       .  S
In376       O383   2.243       .  S
In376       O384   2.287       .  S
In376       O385   2.268       .  S
In376       O388   2.232       .  S
C377        O383   1.258       .  A
C377        O385   1.261       .  A
C377        C625   1.477       .  S
O378        C386   1.259       .  A
O379        C386   1.261       .  A
C380        O387   1.260       .  A
C380        O381   1.264       .  A
C380        C653   1.480       .  S
C382        O384   1.265       .  A
C382        O388   1.257       .  A
C382        C621   1.477       .  S
C386        C642   1.482       .  S
In389       O391   2.274   1_455  S
In389       O392   2.228       .  S
In389       O400   2.238   1_455  S
In389       O394   2.265   1_455  S
In389       O396   2.271       .  S
In389       O397   2.272       .  S
In389       O398   2.220       .  S
In389       O401   2.227       .  S
C390        O396   1.265       .  A
C390        O398   1.259       .  A
C390        C613   1.475       .  S
O391        C399   1.264       .  A
O392        C399   1.259   1_455  A
C393        O400   1.261       .  A
C393        O394   1.263       .  A
C393        C638   1.481       .  S
C395        O397   1.263       .  A
C395        O401   1.258       .  A
C395        C609   1.472       .  S
C399        C617   1.473       .  S
In402       O404   2.269       .  S
In402       O405   2.236   1_655  S
In402       O413   2.222       .  S
In402       O407   2.273       .  S
In402       O409   2.280       .  S
In402       O410   2.271   1_655  S
In402       O411   2.229   1_655  S
In402       O414   2.226   1_655  S
C403        O409   1.261   1_455  A
C403        O411   1.257       .  A
C403        C602   1.479       .  S
O404        C412   1.261       .  A
O405        C412   1.260   1_455  A
C406        O413   1.259       .  A
C406        O407   1.263       .  A
C406        C605   1.477       .  S
C408        O410   1.262       .  A
C408        O414   1.259       .  A
C408        C597   1.477       .  S
C412        C618   1.476       .  S
In415       O417   2.266       .  S
In415       O418   2.252       .  S
In415       O426   2.254       .  S
In415       O420   2.281   1_545  S
In415       O422   2.236       .  S
In415       O423   2.276       .  S
In415       O424   2.267       .  S
In415       O427   2.239       .  S
C416        O422   1.257       .  A
C416        O424   1.264       .  A
C416        C589   1.474       .  S
O417        C425   1.263       .  A
O418        C425   1.259       .  A
C419        O426   1.256   1_565  A
C419        O420   1.261       .  A
C419        C666   1.482       .  S
C421        O423   1.260       .  A
C421        O427   1.256       .  A
C421        C585   1.473       .  S
C425        C594   1.480       .  S
In428       O430   2.256       .  S
In428       O431   2.254       .  S
In428       O439   2.227       .  S
In428       O433   2.273       .  S
In428       O435   2.256       .  S
In428       O436   2.268       .  S
In428       O437   2.221       .  S
In428       O440   2.232       .  S
C429        O435   1.264       .  A
C429        O437   1.262       .  A
C429        C582   1.473       .  S
O430        C438   1.261       .  A
O431        C438   1.261       .  A
C432        O439   1.256       .  A
C432        O433   1.262       .  A
C432        C606   1.470   1_545  S
C434        O436   1.263       .  A
C434        O440   1.258       .  A
C434        C577   1.472       .  S
C438        C593   1.478       .  S
In441       O443   2.253       .  S
In441       O444   2.261       .  S
In441       O452   2.255   1_655  S
In441       O446   2.250   1_655  S
In441       O448   2.269       .  S
In441       O449   2.260       .  S
In441       O450   2.240       .  S
In441       O453   2.249       .  S
C442        O448   1.262       .  A
C442        O450   1.260       .  A
C442        C630   1.479       .  S
O443        C451   1.257       .  A
O444        C451   1.261       .  A
C445        O452   1.260       .  A
C445        O446   1.258       .  A
C445        C569   1.472       .  S
C447        O449   1.261       .  A
C447        O453   1.260       .  A
C447        C574   1.480       .  S
C451        C590   1.476       .  S
In454       O456   2.269       .  S
In454       O457   2.253       .  S
In454       O465   2.262       .  S
In454       O459   2.246       .  S
In454       O461   2.269       .  S
In454       O462   2.250       .  S
In454       O463   2.228       .  S
In454       O466   2.250       .  S
C455        O461   1.262       .  A
C455        O463   1.259       .  A
C455        C578   1.477       .  S
O456        C464   1.259       .  A
O457        C464   1.256       .  A
C458        O465   1.262   1_455  A
C458        O459   1.260   1_455  A
C458        C565   1.477       .  S
C460        O462   1.262       .  A
C460        O466   1.262       .  A
C460        C573   1.476       .  S
C464        C626   1.475       .  S
In467       O469   2.229       .  S
In467       O470   2.275       .  S
In467       O478   2.237       .  S
In467       O472   2.260       .  S
In467       O474   2.290       .  S
In467       O475   2.231       .  S
In467       O476   2.213       .  S
In467       O479   2.250       .  S
C468        O474   1.267       .  A
C468        O476   1.256       .  A
C468        C650   1.474       .  S
O469        C477   1.258       .  A
O470        C477   1.263       .  A
C471        O478   1.259       .  A
C471        O472   1.264       .  A
C471        C566   1.473       .  S
C473        O475   1.264       .  A
C473        O479   1.266       .  A
C473        C562   1.474       .  S
C477        C601   1.473       .  S
In480       O482   2.225       .  S
In480       O483   2.288       .  S
In480       O491   2.248       .  S
In480       O485   2.260       .  S
In480       O487   2.278       .  S
In480       O488   2.241       .  S
In480       O489   2.225       .  S
In480       O492   2.264       .  S
C481        O487   1.264       .  A
C481        O489   1.259       .  A
C481        C610   1.479       .  S
O482        C490   1.256       .  A
O483        C490   1.263       .  A
C484        O491   1.261       .  A
C484        O485   1.263       .  A
C484        C557   1.479       .  S
C486        O488   1.262       .  A
C486        O492   1.262       .  A
C486        C561   1.475       .  S
C490        C662   1.474       .  S
In493       O495   2.228   1_545  S
In493       O496   2.252   1_545  S
In493       O504   2.221       .  S
In493       O498   2.278       .  S
In493       O500   2.266   1_545  S
In493       O501   2.246   1_545  S
In493       O502   2.208   1_545  S
In493       O505   2.240       .  S
C494        O500   1.269       .  A
C494        O502   1.259       .  A
C494        C598   1.469       .  S
O495        C503   1.261       .  A
O496        C503   1.265       .  A
C497        O504   1.259       .  A
C497        O498   1.264       .  A
C497        C549   1.479       .  S
C499        O501   1.264   1_545  A
C499        O505   1.259       .  A
C499        C554   1.471       .  S
C503        C646   1.471       .  S
In506       O508   2.233       .  S
In506       O509   2.269       .  S
In506       O517   2.235   1_565  S
In506       O511   2.260   1_565  S
In506       O513   2.248       .  S
In506       O514   2.254       .  S
In506       O515   2.222       .  S
In506       O518   2.245   1_565  S
C507        O513   1.264       .  A
C507        O515   1.265       .  A
C507        C657   1.472       .  S
O508        C516   1.256       .  A
O509        C516   1.261       .  A
C510        O517   1.258       .  A
C510        O511   1.259       .  A
C510        C570   1.472       .  S
C512        O514   1.263   1_545  A
C512        O518   1.258       .  A
C512        C553   1.471       .  S
C516        C614   1.470       .  S
In519       O521   2.246       .  S
In519       O522   2.268       .  S
In519       O530   2.262       .  S
In519       O524   2.263       .  S
In519       O526   2.270       .  S
In519       O527   2.256       .  S
In519       O528   2.239       .  S
In519       O531   2.262       .  S
C520        O526   1.261       .  A
C520        O528   1.259       .  A
C520        C586   1.478       .  S
O521        C529   1.258       .  A
O522        C529   1.262       .  A
C523        O530   1.259       .  A
C523        O524   1.259       .  A
C523        C558   1.480       .  S
C525        O527   1.261       .  A
C525        O531   1.262       .  A
C525        C545   1.480   1_556  S
C529        C634   1.475       .  S
In532       O534   2.232       .  S
In532       O535   2.261       .  S
In532       O543   2.219       .  S
In532       O537   2.280       .  S
In532       O539   2.279       .  S
In532       O540   2.246       .  S
In532       O541   2.233       .  S
In532       O544   2.254       .  S
C533        O539   1.264       .  A
C533        O541   1.259       .  A
C533        C622   1.482       .  S
O534        C542   1.258       .  A
O535        C542   1.264       .  A
C536        O543   1.257       .  A
C536        O537   1.265       .  A
C536        C550   1.472       .  S
C538        O540   1.263       .  A
C538        O544   1.263       .  A
C538        C546   1.479       .  S
C542        C581   1.469       .  S
C545        H547   1.087       .  S
C546        H548   1.086       .  S
C549        H551   1.086       .  S
C549        C550   1.344       .  D
C550        H552   1.088       .  S
C553        H555   1.087       .  S
C553        C554   1.338       .  D
C554        H556   1.087       .  S
C557        H559   1.087       .  S
C557        C558   1.346       .  D
C558        H560   1.087       .  S
C561        H563   1.087       .  S
C561        C562   1.343       .  D
C562        H564   1.088       .  S
C565        H567   1.087       .  S
C565        C566   1.342       .  D
C566        H568   1.087       .  S
C569        H571   1.087       .  S
C569        C570   1.342       .  D
C570        H572   1.087       .  S
C573        H575   1.087       .  S
C574        H576   1.086   1_556  S
C577        H579   1.087       .  S
C577        C578   1.343       .  D
C578        H580   1.086       .  S
C581        H583   1.087       .  S
C581        C582   1.341       .  D
C582        H584   1.086       .  S
C585        H587   1.087       .  S
C585        C586   1.343       .  D
C586        H588   1.086       .  S
C589        H591   1.087       .  S
C589        C590   1.342       .  D
C590        H592   1.087       .  S
C593        H595   1.087       .  S
C593        C594   1.347       .  D
C594        H596   1.087       .  S
C597        H599   1.086       .  S
C597        C598   1.342       .  D
C598        H600   1.087       .  S
C601        H603   1.087       .  S
C601        C602   1.345       .  D
C602        H604   1.086       .  S
C605        H607   1.086       .  S
C605        C606   1.343       .  D
C606        H608   1.087       .  S
C609        H611   1.087       .  S
C609        C610   1.344       .  D
C610        H612   1.086       .  S
C613        H615   1.086       .  S
C613        C614   1.343       .  D
C614        H616   1.087       .  S
C617        H619   1.087   1_656  S
C618        H620   1.086       .  S
C621        H623   1.087       .  S
C621        C622   1.345       .  D
C622        H624   1.086       .  S
C625        H627   1.086       .  S
C625        C626   1.343       .  D
C626        H628   1.087       .  S
C629        H631   1.087       .  S
C629        C630   1.344       .  D
C630        H632   1.086       .  S
C633        H635   1.087       .  S
C633        C634   1.343       .  D
C634        H636   1.087       .  S
C637        H639   1.087       .  S
C637        C638   1.344       .  D
C638        H640   1.086       .  S
C641        H643   1.087       .  S
C641        C642   1.347       .  D
C642        H644   1.087       .  S
C645        H647   1.086       .  S
C645        C646   1.343       .  D
C646        H648   1.087       .  S
C649        H651   1.086       .  S
C649        C650   1.344       .  D
C650        H652   1.087       .  S
C653        H655   1.087       .  S
C653        C654   1.344       .  D
C654        H656   1.087       .  S
C657        H659   1.086       .  S
C657        C658   1.339       .  D
C658        H660   1.087       .  S
C661        H663   1.086       .  S
C661        C662   1.344       .  D
C662        H664   1.087       .  S
C665        H667   1.086       .  S
C665        C666   1.345       .  D
C666        H668   1.087       .  S
C669        H671   1.086       .  S
C670        H672   1.087       .  S
