geometry optimzed in LAMMPS
_audit_creation_date              2020-12-01 
_audit_creation_method            'lammps2cif' 
_symmetry_space_group_name_H-M    'P1' 
_symmetry_Int_Tables_number       1 
_symmetry_cell_setting            triclinic 
loop_ 
_symmetry_equiv_pos_as_xyz 
  x,y,z 
_cell_length_a                    35.9659856 
_cell_length_b                    35.27512618354825 
_cell_length_c                    28.403412594779855 
_cell_angle_alpha                 89.01468632158014 
_cell_angle_beta                  89.4088831934692 
_cell_angle_gamma                 119.99864279926929 
loop_ 
_atom_site_label 
_atom_site_type_symbol 
_atom_site_fract_x 
_atom_site_fract_y 
_atom_site_fract_z 
_atom_site_charge 
O1          O  0.67501477  0.95200793  0.46305321    -0.71200
O2          O  0.71217553  0.87082575  0.51297026    -0.72200
O3          O  0.73468228  0.95835329  0.52937151    -0.60800
O4          O  0.65295294  0.86400550  0.44394510    -0.69200
O5          O  0.70350344  0.88748106  0.38774959    -0.68800
O6          O  0.78573313  0.97905997  0.47406996    -0.60000
O7          O  0.76178463  0.89051691  0.45611781    -0.72500
O8          O  0.72549468  0.97558151  0.40673642    -0.71300
Cu9        Cu  0.69187172  0.91034747  0.48912374     1.04600
Cu10       Cu  0.74594530  0.93402999  0.42911084     1.04300
C11         C  0.69477838  0.97736983  0.42787249     0.95000
C12         C  0.74247896  0.86773658  0.49324741     0.94100
C13         C  0.77325552  0.98369172  0.51476857     0.86300
C14         C  0.66546747  0.86062597  0.40264339     0.92500
O15         O  0.55803627  0.09383030  0.33988171    -0.71200
O16         O  0.62479382  0.03930613  0.38465185    -0.72200
O17         O  0.53739980  0.01854269  0.39678648    -0.60800
O18         O  0.64481961  0.11594218  0.33095739    -0.69200
O19         O  0.65911707  0.15244921  0.39749899    -0.68800
O20         O  0.55375981  0.05920671  0.46025075    -0.60000
O21         O  0.63898696  0.07576699  0.45114732    -0.72500
O22         O  0.57232988  0.13336073  0.40426190    -0.71300
Cu23       Cu  0.59065588  0.06550517  0.36076348     1.04600
Cu24       Cu  0.60668515  0.10665423  0.43047222     1.04300
C25         C  0.55437883  0.12170374  0.36432108     0.95000
C26         C  0.64226657  0.04841726  0.42478157     0.94100
C27         C  0.52874195  0.02421931  0.43913181     0.86300
C28         C  0.66907090  0.14945865  0.35515424     0.92500
O29         O  0.10395871  0.29162026  0.92006677    -0.71200
O30         O  0.00374157  0.19403964  0.99728984    -0.72200
O31         O  0.09062013  0.21851421  0.97510175    -0.60800
O32         O  0.01779475  0.27011220  0.94543503    -0.69200
O33         O  0.99632579  0.23226067  0.87997792    -0.68800
O34         O  0.07060080  0.17773830  0.91168818    -0.60000
O35         O  0.98335560  0.15642829  0.93155740    -0.72500
O36         O  0.08083863  0.24975241  0.85757982    -0.71300
Cu37       Cu  0.05475178  0.24491648  0.96174106     1.04600
Cu38       Cu  0.03180899  0.20248890  0.89311162     1.04300
C39         C  0.10847254  0.28485237  0.87663818     0.95000
C40         C  0.97721497  0.15992647  0.97509652     0.94100
C41         C  0.09356538  0.19139183  0.94849539     0.86300
C42         C  0.99576465  0.26002639  0.90819734     0.92500
O43         O  0.91077962  0.32648662  0.95051156    -0.71200
O44         O  0.85131027  0.39532100  0.91802412    -0.72200
O45         O  0.83793161  0.31059542  0.89812629    -0.60800
O46         O  0.92325579  0.41103662  0.97230178    -0.69200
O47         O  0.96629629  0.43662746  0.90907336    -0.68800
O48         O  0.87717479  0.33823730  0.83246944    -0.60000
O49         O  0.89516907  0.42355303  0.85556075    -0.72500
O50         O  0.94909027  0.35063098  0.88385287    -0.71300
Cu51       Cu  0.87936073  0.35988500  0.93704010     1.04600
Cu52       Cu  0.92347332  0.38831419  0.86810488     1.04300
C53         C  0.93830929  0.32673286  0.92133663     0.95000
C54         C  0.86467142  0.42066220  0.88145873     0.94100
C55         C  0.84377919  0.30819997  0.85409185     0.86300
C56         C  0.95821116  0.43999026  0.95233852     0.92500
O57         O  0.17425024  0.05726551  0.58522201    -0.71200
O58         O  0.23052600  0.98459615  0.61428866    -0.72200
O59         O  0.23602610  0.06227905  0.65036089    -0.60800
O60         O  0.16680453  0.97908030  0.55098195    -0.69200
O61         O  0.21786171  0.01689077  0.49689675    -0.68800
O62         O  0.28871404  0.10085934  0.59827683    -0.60000
O63         O  0.28053362  0.02274348  0.55936427    -0.72500
O64         O  0.22746360  0.09639142  0.53373715    -0.71300
Cu65       Cu  0.20011046  0.01941895  0.60210441     1.04600
Cu66       Cu  0.25544061  0.06066322  0.54524667     1.04300
C67         C  0.19280355  0.08867018  0.55479669     0.95000
C68         C  0.26407489  0.99198234  0.59049355     0.94100
C69         C  0.27300353  0.09483968  0.64027217     0.86300
C70         C  0.18110777  0.98433860  0.50868539     0.92500
O71         O  0.44090446  0.97107699  0.58102715    -0.71200
O72         O  0.34716231  0.87841708  0.66454811    -0.72200
O73         O  0.43137845  0.89994764  0.63799461    -0.60800
O74         O  0.35590443  0.94965507  0.60990786    -0.69200
O75         O  0.33278243  0.90959688  0.54597873    -0.68800
O76         O  0.40759326  0.85648278  0.57666698    -0.60000
O77         O  0.32229536  0.83726120  0.60155807    -0.72500
O78         O  0.41709559  0.92761176  0.51968043    -0.71300
Cu79       Cu  0.39487287  0.92634913  0.62535829     1.04600
Cu80       Cu  0.36901353  0.88113681  0.55879124     1.04300
C81         C  0.44428904  0.96367234  0.53766068     0.95000
C82         C  0.31896287  0.84360056  0.64519159     0.94100
C83         C  0.43128130  0.87028412  0.61282277     0.86300
C84         C  0.33202709  0.93727765  0.57402208     0.92500
O85         O  0.39684671  0.22362636  0.69796092    -0.71200
O86         O  0.46452988  0.31129444  0.79397703    -0.72200
O87         O  0.45740412  0.23145931  0.76664323    -0.60800
O88         O  0.40264751  0.30294241  0.72726373    -0.69200
O89         O  0.35197593  0.26878008  0.78268762    -0.68800
O90         O  0.40280356  0.19424623  0.81712703    -0.60000
O91         O  0.41324284  0.27583630  0.84841281    -0.72500
O92         O  0.34276078  0.18821098  0.74937955    -0.71300
Cu93       Cu  0.43214983  0.26855187  0.74461377     1.04600
Cu94       Cu  0.37581842  0.23037284  0.80125908     1.04300
C95         C  0.35921431  0.19223310  0.70803706     0.95000
C96         C  0.45005829  0.30795548  0.83595536     0.94100
C97         C  0.43812103  0.20131390  0.79825780     0.86300
C98         C  0.36914577  0.29754691  0.74954366     0.92500
O99         O  0.27894509  0.33732785  0.71546340    -0.71200
O100        O  0.21095630  0.38707161  0.66152064    -0.72200
O101        O  0.29492937  0.40180662  0.64711436    -0.60800
O102        O  0.19458096  0.32312133  0.73301794    -0.69200
O103        O  0.21924596  0.37314633  0.78833438    -0.68800
O104        O  0.31621712  0.45325214  0.70081921    -0.60000
O105        O  0.23086263  0.43610206  0.71778838    -0.72500
O106        O  0.30403254  0.38780689  0.77033605    -0.71300
Cu107      Cu  0.24385112  0.36051842  0.68753628     1.04600
Cu108      Cu  0.26851908  0.41443848  0.74631713     1.04300
C109        C  0.30316340  0.35510203  0.75025758     0.95000
C110        C  0.20976532  0.41883774  0.68061145     0.94100
C111        C  0.32139799  0.44019640  0.66090123     0.86300
C112        C  0.19103464  0.33571531  0.77402898     0.92500
O113        O  0.77565430  0.63812775  0.26133260    -0.71200
O114        O  0.68124774  0.54823347  0.34914100    -0.72200
O115        O  0.76461262  0.56743769  0.31982533    -0.60800
O116        O  0.69198085  0.62023784  0.29404383    -0.69200
O117        O  0.66406753  0.57724747  0.23290483    -0.68800
O118        O  0.73903292  0.52323779  0.25926855    -0.60000
O119        O  0.65506348  0.50511753  0.28790044    -0.72500
O120        O  0.74680106  0.59288407  0.20217623    -0.71300
Cu121      Cu  0.72944794  0.59513655  0.30808711     1.04600
Cu122      Cu  0.70015865  0.54808140  0.24346735     1.04300
C123        C  0.77657842  0.62868092  0.21806021     0.95000
C124        C  0.65272623  0.51245754  0.33135833     0.94100
C125        C  0.76391077  0.53764427  0.29444166     0.86300
C126        C  0.66579238  0.60662044  0.26025293     0.92500
O127        O  0.57423565  0.66462899  0.30853575    -0.71200
O128        O  0.50920327  0.72795244  0.27276958    -0.72200
O129        O  0.49828020  0.64240432  0.26016669    -0.60800
O130        O  0.58282251  0.74830445  0.32491037    -0.69200
O131        O  0.62387831  0.77338606  0.26024453    -0.68800
O132        O  0.53436966  0.66574469  0.19202853    -0.60000
O133        O  0.54998549  0.75234352  0.20768387    -0.72500
O134        O  0.61018185  0.68772132  0.24035831    -0.71300
Cu135      Cu  0.53969513  0.69495278  0.29387658     1.04600
Cu136      Cu  0.58096096  0.72074457  0.22275849     1.04300
C137        C  0.60172477  0.66550249  0.27872396     0.95000
C138        C  0.52088401  0.75115517  0.23450193     0.94100
C139        C  0.50288343  0.63633529  0.21699813     0.86300
C140        C  0.61643050  0.77781588  0.30350769     0.92500
O141        O  0.04837351  0.55275078  0.02689702    -0.71200
O142        O  0.13847458  0.65513301  0.09399975    -0.72200
O143        O  0.12101546  0.56741860  0.07783115    -0.60800
O144        O  0.06342537  0.63830807  0.04470317    -0.69200
O145        O  0.02676215  0.61685074  0.11257296    -0.68800
O146        O  0.08095857  0.54563441  0.14341232    -0.60000
O147        O  0.10141205  0.63257887  0.16158934    -0.72500
O148        O  0.00782594  0.52970399  0.09206468    -0.71300
Cu149      Cu  0.09432244  0.60437545  0.05860170     1.04600
Cu150      Cu  0.05289566  0.58037396  0.12969487     1.04300
C151        C  0.01409765  0.52471613  0.04863637     0.95000
C152        C  0.13453250  0.66054572  0.13766655     0.94100
C153        C  0.10894028  0.54466258  0.11630573     0.86300
C154        C  0.03601427  0.63855452  0.07372038     0.92500
O155        O  0.88372958  0.71138290  0.12317508    -0.71200
O156        O  0.97734286  0.78851422  0.03087401    -0.72200
O157        O  0.89305052  0.77296112  0.05197645    -0.60800
O158        O  0.96776457  0.72505411  0.10062155    -0.69200
O159        O  0.94012744  0.67322384  0.04732111    -0.68800
O160        O  0.86993033  0.72220861  0.99734000    -0.60000
O161        O  0.95309176  0.73594810  0.97830700    -0.72500
O162        O  0.85624367  0.65969927  0.06978244    -0.71300
Cu163      Cu  0.93141658  0.75131639  0.07862578     1.04600
Cu164      Cu  0.90368040  0.69585999  0.02153925     1.04300
C165        C  0.85454527  0.67365139  0.11067231     0.95000
C166        C  0.98079515  0.77436993  0.99089457     0.94100
C167        C  0.87023424  0.75489590  0.01604721     0.86300
C168        C  0.96636737  0.69222576  0.08026674     0.92500
O169        O  0.50629593  0.84092404  0.15221589    -0.71200
O170        O  0.49740987  0.92427242  0.06200558    -0.72200
O171        O  0.56531089  0.90829789  0.08725087    -0.60800
O172        O  0.44046817  0.85922064  0.12758612    -0.69200
O173        O  0.46341578  0.90759763  0.18469542    -0.68800
O174        O  0.58554874  0.95722535  0.14351947    -0.60000
O175        O  0.51763885  0.97375158  0.11763054    -0.72500
O176        O  0.52969001  0.89045366  0.20803266    -0.71300
Cu177      Cu  0.50180409  0.88152903  0.10520110     1.04600
Cu178      Cu  0.52480220  0.93410596  0.16524847     1.04300
C179        C  0.51905137  0.85210547  0.19417074     0.95000
C180        C  0.50480925  0.96161100  0.07574659     0.94100
C181        C  0.59500712  0.94021731  0.10951529     0.86300
C182        C  0.43299132  0.87575459  0.16367519     0.92500
O183        O  0.72960772  0.01875976  0.07249068    -0.71200
O184        O  0.85296892  0.08464644  0.03257658    -0.72200
O185        O  0.78423928  0.99774719  0.02067422    -0.60800
O186        O  0.79991985  0.10566576  0.08660337    -0.69200
O187        O  0.81879101  0.08410959  0.15145705    -0.68800
O188        O  0.80097292  0.97692918  0.08757801    -0.60000
O189        O  0.87286794  0.06473554  0.09776224    -0.72500
O190        O  0.74663794  0.99883508  0.13971965    -0.71300
Cu191      Cu  0.79109462  0.05243462  0.05083196     1.04600
Cu192      Cu  0.81040077  0.03018442  0.12136150     1.04300
C193        C  0.71836765  0.99839669  0.11222893     0.95000
C194        C  0.88249051  0.08637529  0.05853713     0.94100
C195        C  0.78926463  0.96976364  0.04487374     0.86300
C196        C  0.81308562  0.11230434  0.12904583     0.92500
O197        O  0.78169745  0.24543189  0.24223902    -0.71200
O198        O  0.91065427  0.31775060  0.21786997    -0.72200
O199        O  0.84327392  0.23218568  0.19592111    -0.60800
O200        O  0.84785699  0.33236052  0.26246514    -0.69200
O201        O  0.85853090  0.30896341  0.33133892    -0.68800
O202        O  0.85659395  0.20803622  0.26273077    -0.60000
O203        O  0.92153952  0.29490879  0.28692776    -0.72500
O204        O  0.79594925  0.22275411  0.30947742    -0.71300
Cu205      Cu  0.84561590  0.28300320  0.22726122     1.04600
Cu206      Cu  0.85865944  0.25783811  0.29990302     1.04300
C207        C  0.76896669  0.22206116  0.28026238     0.95000
C208        C  0.93623954  0.31782948  0.24902415     0.94100
C209        C  0.84761955  0.20337754  0.21889999     0.86300
C210        C  0.85355663  0.33675762  0.30670006     0.92500
O211        O  0.08517965  0.40439455  0.29519588    -0.71200
O212        O  0.21251071  0.46322488  0.26000080    -0.72200
O213        O  0.14434229  0.47968776  0.24231740    -0.60800
O214        O  0.15432361  0.38964894  0.31665282    -0.69200
O215        O  0.13664629  0.34672851  0.25498609    -0.68800
O216        O  0.13023172  0.44177134  0.17683365    -0.60000
O217        O  0.19468868  0.42039840  0.19801712    -0.72500
O218        O  0.07074824  0.36647755  0.22974396    -0.71300
Cu219      Cu  0.14967390  0.43562032  0.28075912     1.04600
Cu220      Cu  0.13256585  0.39228924  0.21272107     1.04300
C221        C  0.05799188  0.37699911  0.26666699     0.95000
C222        C  0.22301034  0.45042069  0.22281382     0.94100
C223        C  0.13555738  0.47553602  0.19879653     0.86300
C224        C  0.14731307  0.35405693  0.29831087     0.92500
O225        O  0.25221930  0.29181371  0.46544311    -0.71200
O226        O  0.13404865  0.24761650  0.51569567    -0.72200
O227        O  0.19992738  0.22778539  0.53242134    -0.60800
O228        O  0.18576537  0.31134289  0.44529393    -0.69200
O229        O  0.16077708  0.26151937  0.38980898    -0.68800
O230        O  0.17113546  0.17743431  0.47769414    -0.60000
O231        O  0.10591380  0.19890081  0.45925182    -0.72500
O232        O  0.22721443  0.24206894  0.40977958    -0.71300
Cu233      Cu  0.19374027  0.27146490  0.49152708     1.04600
Cu234      Cu  0.16532548  0.21817579  0.43217245     1.04300
C235        C  0.25872192  0.27344629  0.43062620     0.95000
C236        C  0.10156005  0.21666009  0.49623117     0.94100
C237        C  0.18795954  0.18931069  0.51803266     0.86300
C238        C  0.17121412  0.29964871  0.40383921     0.92500
O239        O  0.39023737  0.35804113  0.39669024    -0.71200
O240        O  0.50927560  0.42573281  0.34479192    -0.72200
O241        O  0.43509552  0.34468072  0.32412655    -0.60800
O242        O  0.46479202  0.43866990  0.42072631    -0.69200
O243        O  0.48310225  0.40184792  0.47044138    -0.68800
O244        O  0.45964929  0.31293125  0.37314947    -0.60000
O245        O  0.53231010  0.39444860  0.39642121    -0.72500
O246        O  0.40946234  0.32164105  0.44599644    -0.71300
Cu247      Cu  0.44928599  0.39320575  0.36992798     1.04600
Cu248      Cu  0.47187600  0.35649528  0.42325039     1.04300
C249        C  0.38054607  0.32832215  0.42828436     0.95000
C250        C  0.53946269  0.42125877  0.36199064     0.94100
C251        C  0.44262333  0.31371243  0.33421611     0.86300
C252        C  0.47843152  0.43462252  0.46103003     0.92500
O253        O  0.43499846  0.57221257  0.58666078    -0.71200
O254        O  0.56310643  0.64620641  0.55762675    -0.72200
O255        O  0.49302677  0.56913303  0.52005730    -0.60800
O256        O  0.50332360  0.64978251  0.62217407    -0.69200
O257        O  0.51660346  0.61100100  0.67475274    -0.68800
O258        O  0.50710844  0.52944030  0.57050449    -0.60000
O259        O  0.57500815  0.60688708  0.61084117    -0.72500
O260        O  0.44970033  0.53236224  0.63632066    -0.71300
Cu261      Cu  0.49827644  0.61081578  0.56975507     1.04600
Cu262      Cu  0.51257148  0.56854440  0.62483500     1.04300
C263        C  0.42263350  0.54015359  0.61619717     0.95000
C264        C  0.58914038  0.63832609  0.58055348     0.94100
C265        C  0.49740498  0.53608197  0.52902603     0.86300
C266        C  0.51130426  0.64341021  0.66430973     0.92500
O267        O  0.79412338  0.66945069  0.58839652    -0.71200
O268        O  0.78143159  0.75516440  0.50269199    -0.72200
O269        O  0.85017177  0.74212617  0.52957153    -0.60800
O270        O  0.72444976  0.68213609  0.55949432    -0.69200
O271        O  0.73710299  0.72203676  0.62324425    -0.68800
O272        O  0.86373372  0.78847073  0.58760055    -0.60000
O273        O  0.79078221  0.79565920  0.56523186    -0.72500
O274        O  0.81047632  0.71510854  0.64749424    -0.71300
Cu275      Cu  0.78715542  0.71054841  0.54302815     1.04600
Cu276      Cu  0.80101332  0.75680353  0.60805361     1.04300
C277        C  0.80531912  0.67938190  0.63112773     0.95000
C278        C  0.78273622  0.78842627  0.52158505     0.94100
C279        C  0.87651469  0.77522911  0.55268480     0.86300
C280        C  0.71078929  0.69290504  0.59561010     0.92500
O281        O  0.82458656  0.59146492  0.72163419    -0.71200
O282        O  0.83855992  0.50773875  0.80630392    -0.72200
O283        O  0.77205187  0.52800307  0.79104093    -0.60800
O284        O  0.89207615  0.57320591  0.73746282    -0.69200
O285        O  0.91793746  0.62264509  0.79338777    -0.68800
O286        O  0.80049625  0.57664986  0.84751910    -0.60000
O287        O  0.86740236  0.55781394  0.86125819    -0.72500
O288        O  0.85034668  0.64129428  0.77706669    -0.71300
Cu289      Cu  0.83088830  0.54828640  0.76216796     1.04600
Cu290      Cu  0.85987438  0.60137712  0.82166265     1.04300
C291        C  0.83476075  0.62942941  0.73605763     0.95000
C292        C  0.85567733  0.51949068  0.84656147     0.94100
C293        C  0.76792849  0.54554380  0.82830985     0.86300
C294        C  0.92383400  0.60502255  0.75742823     0.92500
O295        O  0.16935169  0.76283181  0.65548560    -0.71200
O296        O  0.05209252  0.69023189  0.71042280    -0.72200
O297        O  0.12073637  0.77693751  0.72587012    -0.60800
O298        O  0.10177795  0.67682112  0.64292430    -0.69200
O299        O  0.12988476  0.65466620  0.69877793    -0.68800
O300        O  0.14616519  0.75158326  0.78140061    -0.60000
O301        O  0.07735116  0.66563020  0.76702029    -0.72500
O302        O  0.19745016  0.74130301  0.71205686    -0.71300
Cu303      Cu  0.11015950  0.72772227  0.68180608     1.04600
Cu304      Cu  0.13860708  0.70239920  0.74178455     1.04300
C305        C  0.20163920  0.76343136  0.67422507     0.95000
C306        C  0.04586604  0.66603988  0.74685694     0.94100
C307        C  0.13631505  0.77976622  0.76689206     0.86300
C308        C  0.11327375  0.65004639  0.65827889     0.92500
O309        O  0.52947164  0.10880475  0.91446684    -0.71200
O310        O  0.40389053  0.04910852  0.95418801    -0.72200
O311        O  0.47685784  0.04163138  0.98074970    -0.60800
O312        O  0.45805932  0.11779670  0.88888091    -0.69200
O313        O  0.44089528  0.06857791  0.83325794    -0.68800
O314        O  0.45979105  0.99187755  0.92585008    -0.60000
O315        O  0.38848857  0.00124768  0.89744038    -0.72500
O316        O  0.51215094  0.05870791  0.85972498    -0.71300
Cu317      Cu  0.46759334  0.08105920  0.93657008     1.04600
Cu318      Cu  0.44987789  0.02838481  0.87721541     1.04300
C319        C  0.54018545  0.09234224  0.88085253     0.95000
C320        C  0.37639838  0.01646480  0.93093789     0.94100
C321        C  0.47200983  0.00502655  0.96758442     0.86300
C322        C  0.44596507  0.10512289  0.84710562     0.92500
O323        O  0.10148224  0.89847622  0.91814700    -0.71200
O324        O  0.22934670  0.96413442  0.88993333    -0.72200
O325        O  0.15797485  0.88490342  0.85926474    -0.60800
O326        O  0.17203536  0.97779793  0.94735439    -0.69200
O327        O  0.17978481  0.94232817  0.00823050    -0.68800
O328        O  0.17168483  0.85123369  0.91751412    -0.60000
O329        O  0.23951281  0.93177513  0.95223521    -0.72500
O330        O  0.11272332  0.86148599  0.97496513    -0.71300
Cu331      Cu  0.16490608  0.93260224  0.90158361     1.04600
Cu332      Cu  0.17626005  0.89538021  0.96525164     1.04300
C333        C  0.08729021  0.86924773  0.95114810     0.95000
C334        C  0.25452422  0.95886199  0.91734613     0.94100
C335        C  0.16259486  0.85328084  0.87440346     0.86300
C336        C  0.17778140  0.97507486  0.99131972     0.92500
O337        O  0.56269668  0.42474846  0.91471857    -0.71200
O338        O  0.62734875  0.55132472  0.95364349    -0.72200
O339        O  0.54436837  0.47821209  0.97257134    -0.60800
O340        O  0.64615338  0.49754328  0.89687809    -0.69200
O341        O  0.62164675  0.51427558  0.83304892    -0.68800
O342        O  0.52091962  0.50017965  0.91185143    -0.60000
O343        O  0.60589106  0.57054783  0.88907655    -0.72500
O344        O  0.53725186  0.44492426  0.85421473    -0.71300
Cu345      Cu  0.59594558  0.48725155  0.93663549     1.04600
Cu346      Cu  0.57044581  0.50810220  0.86991549     1.04300
C347        C  0.53965313  0.41531110  0.87808159     0.95000
C348        C  0.62754252  0.58089753  0.92672472     0.94100
C349        C  0.51660701  0.48624466  0.95458855     0.86300
C350        C  0.65038894  0.50910830  0.85341958     0.92500
O351        O  0.74829030  0.77559250  0.01183819    -0.71200
O352        O  0.65976074  0.78445479  0.93299653    -0.72200
O353        O  0.67843687  0.71686173  0.95691229    -0.60800
O354        O  0.72901259  0.84222551  0.99029094    -0.69200
O355        O  0.77240400  0.86390131  0.92726081    -0.68800
O356        O  0.72036050  0.73621822  0.89280555    -0.60000
O357        O  0.70382594  0.80503718  0.87061451    -0.72500
O358        O  0.79061409  0.79538692  0.94804613    -0.71300
Cu359      Cu  0.70232327  0.77916317  0.97513815     1.04600
Cu360      Cu  0.74842808  0.80087584  0.90754788     1.04300
C361        C  0.78343122  0.78360646  0.99151493     0.95000
C362        C  0.66794933  0.79614542  0.88942163     0.94100
C363        C  0.69114496  0.70653023  0.91972520     0.86300
C364        C  0.75862925  0.87277441  0.96483154     0.92500
O365        O  0.74936207  0.13513221  0.72414621    -0.71200
O366        O  0.65307896  0.12021240  0.80764729    -0.72200
O367        O  0.74013187  0.18725538  0.79264397    -0.60800
O368        O  0.66301594  0.06660907  0.74060163    -0.69200
O369        O  0.68440217  0.03820625  0.79732426    -0.68800
O370        O  0.75753886  0.15557497  0.84982548    -0.60000
O371        O  0.67135525  0.08834491  0.86370518    -0.72500
O372        O  0.77107731  0.10648868  0.78019204    -0.71300
Cu373      Cu  0.70066817  0.12835405  0.76425624     1.04600
Cu374      Cu  0.72198294  0.09620709  0.82461483     1.04300
C375        C  0.77584943  0.12385681  0.73895357     0.95000
C376        C  0.64632857  0.10141648  0.84815822     0.94100
C377        C  0.76061353  0.18974552  0.83013275     0.86300
C378        C  0.66124873  0.03336787  0.76178827     0.92500
O379        O  0.54668638  0.77383355  0.68831254    -0.71200
O380        O  0.60104608  0.89878767  0.72362656    -0.72200
O381        O  0.61798616  0.82933122  0.74388140    -0.60800
O382        O  0.52833403  0.84266865  0.67064524    -0.69200
O383        O  0.48933263  0.82503870  0.73693188    -0.68800
O384        O  0.57447680  0.80704317  0.80679020    -0.60000
O385        O  0.56229938  0.87927407  0.79017962    -0.72500
O386        O  0.50287509  0.75254395  0.75107492    -0.71300
Cu387      Cu  0.57495125  0.83669722  0.70430548     1.04600
Cu388      Cu  0.53068578  0.81517537  0.77339893     1.04300
C389        C  0.51642549  0.74366559  0.71333400     0.95000
C390        C  0.59079616  0.90888216  0.76260048     0.94100
C391        C  0.61003460  0.81606909  0.78706132     0.86300
C392        C  0.49513735  0.83721080  0.69370091     0.92500
O393        O  0.95430748  0.18324379  0.50526997    -0.71200
O394        O  0.85831086  0.17148577  0.59155812    -0.72200
O395        O  0.94251489  0.24038013  0.56365982    -0.60800
O396        O  0.86981298  0.11543312  0.53080594    -0.69200
O397        O  0.89762101  0.09441042  0.58817186    -0.68800
O398        O  0.96653853  0.22136733  0.62626443    -0.60000
O399        O  0.88368161  0.14876680  0.64976369    -0.72500
O400        O  0.98097616  0.16626703  0.56700955    -0.71300
Cu401      Cu  0.90520869  0.17827499  0.54579025     1.04600
Cu402      Cu  0.93312001  0.15696718  0.60990083     1.04300
C403        C  0.98374141  0.17797070  0.52376449     0.95000
C404        C  0.85549383  0.15722200  0.63400147     0.94100
C405        C  0.96618301  0.25089382  0.59969037     0.86300
C406        C  0.87229626  0.08537396  0.55354352     0.92500
O407        O  0.00458013  0.45795241  0.59834355    -0.71200
O408        O  0.09177705  0.44636302  0.67645647    -0.72200
O409        O  0.07510643  0.51466017  0.65274656    -0.60800
O410        O  0.01994945  0.38814827  0.62412996    -0.69200
O411        O  0.05916521  0.40417581  0.55818736    -0.68800
O412        O  0.11908832  0.53253796  0.59038548    -0.60000
O413        O  0.13182869  0.46079738  0.61141861    -0.72500
O414        O  0.04805456  0.47710566  0.53552307    -0.71300
Cu415      Cu  0.04631611  0.45117870  0.64007111     1.04600
Cu416      Cu  0.09105290  0.46917459  0.57163361     1.04300
C417        C  0.01325912  0.47068364  0.55509337     0.95000
C418        C  0.12548480  0.45113163  0.65541208     0.94100
C419        C  0.10555220  0.54336890  0.62667783     0.86300
C420        C  0.03063660  0.37595801  0.58686650     0.92500
O421        O  0.83211685  0.50144319  0.41475287    -0.71200
O422        O  0.92474045  0.49453533  0.48049268    -0.72200
O423        O  0.90518923  0.56256823  0.46437917    -0.60800
O424        O  0.85465972  0.43473217  0.42788306    -0.69200
O425        O  0.89492693  0.45921170  0.36260424    -0.68800
O426        O  0.94231374  0.58282345  0.39678815    -0.60000
O427        O  0.96595096  0.51722795  0.41581967    -0.72500
O428        O  0.86937520  0.52226864  0.34718378    -0.71300
Cu429      Cu  0.87771257  0.49759914  0.44914839     1.04600
Cu430      Cu  0.91956819  0.52115761  0.37834034     1.04300
C431        C  0.83559328  0.51309518  0.37154295     0.95000
C432        C  0.95950275  0.50359450  0.45894538     0.94100
C433        C  0.93142029  0.59270450  0.43543531     0.86300
C434        C  0.86800338  0.42747570  0.38890472     0.92500
O435        O  0.97799980  0.80341420  0.46445756    -0.71200
O436        O  0.06198365  0.81894127  0.36240773    -0.72200
O437        O  0.98370487  0.74624807  0.39885455    -0.60800
O438        O  0.05662368  0.87479505  0.43021716    -0.69200
O439        O  0.09270260  0.85619422  0.47954443    -0.68800
O440        O  0.01800653  0.72967890  0.45265126    -0.60000
O441        O  0.09654357  0.79978496  0.41316770    -0.72500
O442        O  0.01291782  0.78637609  0.51701998    -0.71300
Cu443      Cu  0.01882385  0.81145499  0.41211347     1.04600
Cu444      Cu  0.05639565  0.79251817  0.46728190     1.04300
C445        C  0.98154409  0.79202574  0.50632001     0.95000
C446        C  0.09282677  0.81221581  0.37166154     0.94100
C447        C  0.98886549  0.71774518  0.42199982     0.86300
C448        C  0.08648637  0.88530256  0.45997866     0.92500
O449        O  0.42072623  0.11961155  0.34508825    -0.71200
O450        O  0.33531855  0.11883582  0.25371976    -0.72200
O451        O  0.35388716  0.05462497  0.29155462    -0.60800
O452        O  0.40082680  0.18292448  0.30873139    -0.69200
O453        O  0.44978930  0.19934414  0.25185941    -0.68800
O454        O  0.39699724  0.06952087  0.22907393    -0.60000
O455        O  0.38282372  0.13785985  0.19475379    -0.72500
O456        O  0.46520468  0.13280510  0.28432911    -0.71300
Cu457      Cu  0.37601204  0.11843557  0.30176052     1.04600
Cu458      Cu  0.42529447  0.13527420  0.23785687     1.04300
C459        C  0.45680633  0.12649600  0.32852470     0.95000
C460        C  0.34602071  0.12945316  0.21031659     0.94100
C461        C  0.36754076  0.04170233  0.25725836     0.86300
C462        C  0.43308558  0.21121614  0.28420953     0.92500
O463        O  0.22935006  0.75957991  0.25631679    -0.71200
O464        O  0.30410390  0.88642427  0.29558944    -0.72200
O465        O  0.22155362  0.81531182  0.32097444    -0.60800
O466        O  0.31369489  0.82988506  0.23313023    -0.69200
O467        O  0.28881045  0.85287792  0.17477112    -0.68800
O468        O  0.19282301  0.83683937  0.26522798    -0.60000
O469        O  0.27683705  0.90708972  0.23745332    -0.72500
O470        O  0.20466957  0.78391268  0.19895861    -0.71300
Cu471      Cu  0.26811435  0.82198645  0.27841842     1.04600
Cu472      Cu  0.23966841  0.84585589  0.21716974     1.04300
C473        C  0.20518662  0.75231813  0.22080983     0.95000
C474        C  0.30245428  0.91667747  0.27161924     0.94100
C475        C  0.19246067  0.82320181  0.30754748     0.86300
C476        C  0.31716656  0.84465489  0.19105415     0.92500
O477        O  0.16910960  0.16104227  0.06407005    -0.71200
O478        O  0.25708946  0.14453119  0.12753207    -0.72200
O479        O  0.23979669  0.21439478  0.12164944    -0.60800
O480        O  0.18934682  0.09236642  0.06727873    -0.69200
O481        O  0.23327457  0.12312744  0.00529503    -0.68800
O482        O  0.27995696  0.24178589  0.05658051    -0.60000
O483        O  0.30217046  0.17441886  0.06651380    -0.72500
O484        O  0.20928809  0.18783888  0.99884447    -0.71300
Cu485      Cu  0.21229960  0.15205218  0.09724031     1.04600
Cu486      Cu  0.25779163  0.18276725  0.02960379     1.04300
C487        C  0.17452161  0.17670867  0.02226633     0.95000
C488        C  0.29348149  0.15679498  0.10805663     0.94100
C489        C  0.26776453  0.24732681  0.09688649     0.86300
C490        C  0.20402185  0.08934972  0.02705659     0.92500
O491        O  0.43354853  0.50710065  0.16443582    -0.71200
O492        O  0.35390565  0.38154495  0.13335245    -0.72200
O493        O  0.43809731  0.44716741  0.10272753    -0.60800
O494        O  0.34986657  0.44169916  0.19450730    -0.69200
O495        O  0.32441304  0.46590953  0.13776109    -0.68800
O496        O  0.41130961  0.46914415  0.04524864    -0.60000
O497        O  0.32735418  0.40375710  0.07587184    -0.72500
O498        O  0.40871224  0.53025254  0.10603516    -0.71300
Cu499      Cu  0.39485626  0.44368375  0.15068728     1.04600
Cu500      Cu  0.36681218  0.46794480  0.08927189     1.04300
C501        C  0.43397237  0.53833372  0.14041874     0.95000
C502        C  0.32808554  0.37286141  0.09939959     0.94100
C503        C  0.43902300  0.45941611  0.05990682     0.86300
C504        C  0.32317724  0.45302714  0.18045304     0.92500
C505        C  0.28755630  0.29230376  0.11488746    -0.14700
C506        C  0.30067134  0.32705797  0.08509983    -0.29900
H507        H  0.29289475  0.29707096  0.15241898     0.14300
H508        H  0.29228206  0.32169096  0.04820561     0.14900
C509        C  0.31533742  0.13271945  0.17894383    -0.14700
C510        C  0.32530272  0.15075173  0.13496637    -0.29900
H511        H  0.28359863  0.12180065  0.19407754     0.14300
H512        H  0.35710657  0.16242590  0.11965834     0.14900
C513        C  0.34741418  0.99434365  0.24850489    -0.14700
C514        C  0.32965836  0.96332452  0.28309393    -0.29900
H515        H  0.34570196  0.98456909  0.21214866     0.14300
H516        H  0.33398458  0.97240894  0.31981405     0.14900
C517        C  0.12456848  0.81965193  0.33391093    -0.14700
C518        C  0.15904360  0.81584794  0.34280927    -0.29900
H519        H  0.11994846  0.82907732  0.29878815     0.14300
H520        H  0.16318546  0.80638696  0.37814645     0.14900
C521        C  0.95074038  0.63949535  0.44670700    -0.14700
C522        C  0.96207419  0.67064454  0.41249350    -0.29900
H523        H  0.95723175  0.64869292  0.48328877     0.14300
H524        H  0.95252341  0.66128480  0.37645120     0.14900
C525        C  0.99158030  0.49695223  0.48436102    -0.14700
C526        C  0.98279065  0.47844945  0.52812557    -0.29900
H527        H  0.02206233  0.50636178  0.46680795     0.14300
H528        H  0.95225750  0.46922747  0.54547052     0.14900
C529        C  0.99269916  0.29762222  0.61071473    -0.14700
C530        C  0.00884254  0.32893759  0.57637102    -0.29900
H531        H  0.99889041  0.30649476  0.64741134     0.14300
H532        H  0.00558924  0.31980248  0.53966714     0.14900
C533        C  0.81244598  0.13125995  0.70829101    -0.14700
C534        C  0.81911254  0.15005119  0.66486861    -0.29900
H535        H  0.83438675  0.12113969  0.72178450     0.14300
H536        H  0.79695382  0.15981378  0.65122088     0.14900
C537        C  0.63257186  0.98866652  0.74561783    -0.14700
C538        C  0.61356617  0.95485227  0.77692518    -0.29900
H539        H  0.62768643  0.98328979  0.70810110     0.14300
H540        H  0.61599365  0.96106993  0.81443169     0.14900
C541        C  0.63562143  0.79949558  0.86080286    -0.14700
C542        C  0.64228982  0.81159515  0.81471429    -0.29900
H543        H  0.60568106  0.79216182  0.87833397     0.14300
H544        H  0.67224917  0.81908695  0.79712333     0.14900
C545        C  0.65219021  0.62732289  0.93974600    -0.14700
C546        C  0.67076937  0.65998291  0.90705594    -0.29900
H547        H  0.65531048  0.63481313  0.97693202     0.14300
H548        H  0.67057822  0.65234473  0.87013154     0.14900
C549        C  0.47951636  0.47968845  0.98374127    -0.14700
C550        C  0.47334940  0.46316819  0.02807832    -0.29900
H551        H  0.45764844  0.48937307  0.96904376     0.14300
H552        H  0.49540217  0.45359968  0.04251898     0.14900
C553        C  0.18384360  0.01117454  0.02206440    -0.14700
C554        C  0.18710941  0.04776639  0.00275629    -0.29900
H555        H  0.18972975  0.00959317  0.05928664     0.14300
H556        H  0.18396911  0.04987520  0.96492773     0.14900
C557        C  0.58505448  0.11195919  0.86515947    -0.14700
C558        C  0.60772572  0.09228012  0.87577787    -0.29900
H559        H  0.59704327  0.13846438  0.83896793     0.14300
H560        H  0.59543134  0.06599845  0.90231285     0.14900
C561        C  0.30122351  0.98321177  0.90769701    -0.14700
C562        C  0.33011574  0.99593460  0.94226356    -0.29900
H563        H  0.31222340  0.99113059  0.87118292     0.14300
H564        H  0.31967251  0.99179243  0.97894813     0.14900
C565        C  0.10527270  0.61201393  0.63035032    -0.14700
C566        C  0.12493318  0.58907180  0.64012459    -0.29900
H567        H  0.07986514  0.60011043  0.60471841     0.14300
H568        H  0.15015476  0.60062128  0.66591945     0.14900
C569        C  0.14289639  0.81577698  0.79792340    -0.14700
C570        C  0.15705249  0.81842517  0.84225639    -0.29900
H571        H  0.13536574  0.84008735  0.78436293     0.14300
H572        H  0.16383271  0.79362269  0.85597998     0.14900
C573        C  0.68980389  0.51821852  0.82740732    -0.14700
C574        C  0.72590501  0.53007015  0.85113813    -0.29900
H575        H  0.69036651  0.51908720  0.78914033     0.14300
H576        H  0.72570777  0.53303433  0.88916909     0.14900
C577        C  0.96771250  0.62293016  0.73815215    -0.14700
C578        C  0.00191518  0.63969557  0.76632915    -0.29900
H579        H  0.97218550  0.62401901  0.70015914     0.14300
H580        H  0.99742428  0.63556021  0.80434288     0.14900
C581        C  0.94697234  0.78200548  0.54113982    -0.14700
C582        C  0.92134748  0.79924829  0.53605621    -0.29900
H583        H  0.93866480  0.75564433  0.56683647     0.14300
H584        H  0.92985600  0.82575868  0.51051315     0.14900
C585        C  0.81243412  0.64926505  0.66161843    -0.14700
C586        C  0.82813423  0.65979481  0.70539616    -0.29900
H587        H  0.80493164  0.61785361  0.64748677     0.14300
H588        H  0.83617530  0.69144196  0.71929048     0.14900
C589        C  0.66420453  0.67100620  0.60560921    -0.14700
C590        C  0.63596426  0.66480221  0.57157645    -0.29900
H591        H  0.65290260  0.66015796  0.64162092     0.14300
H592        H  0.64750153  0.67904732  0.53654321     0.14900
C593        C  0.51689449  0.67566988  0.70000902    -0.14700
C594        C  0.49667159  0.69889708  0.69610029    -0.29900
H595        H  0.54199303  0.68456208  0.72562338     0.14300
H596        H  0.47172087  0.68984346  0.67027062     0.14900
C597        C  0.48966836  0.50519890  0.49076336    -0.14700
C598        C  0.48892108  0.46718454  0.49808658    -0.29900
H599        H  0.48259059  0.51318527  0.45609416     0.14300
H600        H  0.49612282  0.45932198  0.53275666     0.14900
C601        C  0.42863182  0.27637723  0.30292785    -0.14700
C602        C  0.45269022  0.25754331  0.29636898    -0.29900
H603        H  0.39586608  0.26062134  0.29058261     0.14300
H604        H  0.48609763  0.27430886  0.30661404     0.14900
C605        C  0.02269158  0.18760840  0.49630279    -0.14700
C606        C  0.05957376  0.20125476  0.51916536    -0.29900
H607        H  0.02222740  0.18737472  0.45807996     0.14300
H608        H  0.05997303  0.20522819  0.55707363     0.14900
C609        C  0.30318224  0.28992863  0.41404135    -0.14700
C610        C  0.33548309  0.30250232  0.44455664    -0.29900
H611        H  0.30984935  0.29376497  0.37632240     0.14300
H612        H  0.32865740  0.29551119  0.48205755     0.14900
C613        C  0.26772733  0.47001068  0.20635184    -0.14700
C614        C  0.28881172  0.44807519  0.21307700    -0.29900
H615        H  0.27880809  0.49563365  0.17919761     0.14300
H616        H  0.27732722  0.42213795  0.23996034     0.14900
C617        C  0.15193854  0.32163263  0.32790624    -0.14700
C618        C  0.16631100  0.33070869  0.37245985    -0.29900
H619        H  0.14380102  0.29033096  0.31299840     0.14300
H620        H  0.17484072  0.36230999  0.38686225     0.14900
C621        C  0.98316886  0.34339966  0.24062415    -0.14700
C622        C  0.01133411  0.35665156  0.27612380    -0.29900
H623        H  0.99490779  0.35092803  0.20433457     0.14300
H624        H  0.99992943  0.35217414  0.31247086     0.14900
C625        C  0.85710327  0.37637569  0.32716869    -0.14700
C626        C  0.85403520  0.38260793  0.37332995    -0.29900
H627        H  0.86440016  0.40298498  0.30211326     0.14300
H628        H  0.84416069  0.35601986  0.39908873     0.14900
C629        C  0.84045662  0.16356251  0.19496864    -0.14700
C630        C  0.82238753  0.15315100  0.15219792    -0.29900
H631        H  0.84814319  0.14137885  0.21381277     0.14300
H632        H  0.81432733  0.17516115  0.13358460     0.14900
C633        C  0.77871187  0.92707570  0.02571871    -0.14700
C634        C  0.77641381  0.91847468  0.97960270    -0.29900
H635        H  0.77113899  0.90081201  0.05135088     0.14300
H636        H  0.78672959  0.94458605  0.95314855     0.14900
C637        C  0.38988996  0.85683656  0.18477095    -0.14700
C638        C  0.35589954  0.85448425  0.16274806    -0.29900
H639        H  0.38809402  0.85064928  0.22256868     0.14300
H640        H  0.35838756  0.86421081  0.12583459     0.14900
C641        C  0.48072114  0.97742682  0.00031786    -0.14700
C642        C  0.49752722  0.99051967  0.04329349    -0.29900
H643        H  0.47330463  0.94534821  0.98835025     0.14300
H644        H  0.50509711  0.02260468  0.05537702     0.14900
C645        C  0.64063641  0.95842397  0.09533334    -0.14700
C646        C  0.67244378  0.97538796  0.12687015    -0.29900
H647        H  0.64827602  0.95792594  0.05832528     0.14300
H648        H  0.66457012  0.97261285  0.16426539     0.14900
C649        C  0.81525671  0.77721974  0.01762985    -0.14700
C650        C  0.84449866  0.77158541  0.99388641    -0.29900
H651        H  0.81178116  0.77222386  0.05563738     0.14300
H652        H  0.84497128  0.77255001  0.95560772     0.14900
C653        C  0.04151806  0.84504169  0.96409669    -0.14700
C654        C  0.01907511  0.80135283  0.96092195    -0.29900
H655        H  0.02847235  0.86213580  0.98362259     0.14300
H656        H  0.03190078  0.78470841  0.94016791     0.14900
C657        C  0.12624084  0.51613973  0.13070894    -0.14700
C658        C  0.12847940  0.50939369  0.17697036    -0.29900
H659        H  0.13446524  0.49929602  0.10455454     0.14300
H660        H  0.12270432  0.52922958  0.20168519     0.14900
C661        C  0.01317538  0.66224524  0.06137402    -0.14700
C662        C  0.99517843  0.67568492  0.09418197    -0.29900
H663        H  0.00967173  0.66739566  0.02422412     0.14300
H664        H  0.00118016  0.67391330  0.13132824     0.14900
C665        C  0.16755453  0.70157541  0.15822934    -0.14700
C666        C  0.17682956  0.70742445  0.20422131    -0.29900
H667        H  0.18475609  0.72914924  0.13362881     0.14300
H668        H  0.16271584  0.67996080  0.22926195     0.14900
C669        C  0.50197200  0.77779431  0.21971966    -0.14700
C670        C  0.52391354  0.82129489  0.22586938    -0.29900
H671        H  0.47679426  0.76410281  0.19389456     0.14300
H672        H  0.54943765  0.83494106  0.25134483     0.14900
C673        C  0.47242430  0.59311478  0.19880704    -0.14700
C674        C  0.46364063  0.58400964  0.15334795    -0.29900
H675        H  0.45574176  0.56697176  0.22514660     0.14300
H676        H  0.47698062  0.60987589  0.12639538     0.14900
C677        C  0.79285464  0.52088904  0.30700953    -0.14700
C678        C  0.80102943  0.51917608  0.35273228    -0.29900
H679        H  0.80887400  0.51272202  0.27975037     0.14300
H680        H  0.78197120  0.52456216  0.37893766     0.14900
C681        C  0.81288041  0.65847221  0.18620150    -0.14700
C682        C  0.81817087  0.64573966  0.14318503    -0.29900
H683        H  0.83630753  0.69042936  0.19883085     0.14300
H684        H  0.79490690  0.61347368  0.13109738     0.14900
C685        C  0.63806667  0.62583115  0.25243313    -0.14700
C686        C  0.62458867  0.64121910  0.28809407    -0.29900
H687        H  0.62873115  0.62766246  0.21657739     0.14300
H688        H  0.63082361  0.63627008  0.32436865     0.14900
C689        C  0.61530842  0.48012985  0.36016885    -0.14700
C690        C  0.58204628  0.44641300  0.33943576    -0.29900
H691        H  0.61282728  0.48655852  0.39701067     0.14300
H692        H  0.58345630  0.44207060  0.30181366     0.14900
C693        C  0.18396128  0.43510872  0.65778828    -0.14700
C694        C  0.15668378  0.44373670  0.68145575    -0.29900
H695        H  0.18310422  0.43402045  0.61957158     0.14300
H696        H  0.15452173  0.44103948  0.71967184     0.14900
C697        C  0.36016002  0.46848293  0.63235166    -0.14700
C698        C  0.37706112  0.51207598  0.62920461    -0.29900
H699        H  0.37755105  0.45354762  0.61735176     0.14300
H700        H  0.35897907  0.52724890  0.64144340     0.14900
C701        C  0.45724151  0.17547687  0.81543661    -0.14700
C702        C  0.43470606  0.13156028  0.81607345    -0.29900
H703        H  0.48803715  0.19253754  0.83256352     0.14300
H704        H  0.40507461  0.11470964  0.79671437     0.14900
C705        C  0.32989033  0.33687465  0.76675115    -0.14700
C706        C  0.34887509  0.32326087  0.73546417    -0.29900
H707        H  0.33303899  0.33342065  0.80434969     0.14300
H708        H  0.34856168  0.33026225  0.69809909     0.14900
C709        C  0.51754327  0.37070389  0.86036991    -0.14700
C710        C  0.47546221  0.34326919  0.86890531    -0.29900
H711        H  0.53394910  0.36401343  0.83219470     0.14300
H712        H  0.45877531  0.34990333  0.89682094     0.14900
C713        C  0.45877228  0.85212526  0.62701795    -0.14700
C714        C  0.46407525  0.84800385  0.67317339    -0.29900
H715        H  0.47480663  0.84314135  0.60057923     0.14300
H716        H  0.44493869  0.85428626  0.69840144     0.14900
C717        C  0.28052822  0.81172397  0.67238796    -0.14700
C718        C  0.24329463  0.78954376  0.65005152    -0.29900
H719        H  0.28132394  0.81050983  0.71059563     0.14300
H720        H  0.24246413  0.79463465  0.61228291     0.14900
C721        C  0.19683695  0.15949835  0.54636383    -0.14700
C722        C  0.17404312  0.11589569  0.54189942    -0.29900
H723        H  0.22557586  0.17387856  0.56740922     0.14300
H724        H  0.14434192  0.10091821  0.52255250     0.14900
C725        C  0.28511566  0.96588307  0.59952431    -0.14700
C726        C  0.30441302  0.95630921  0.56446518    -0.29900
H727        H  0.28583762  0.95540879  0.63553360     0.14300
H728        H  0.30061813  0.96352028  0.52806996     0.14900
C729        C  0.15580822  0.95029630  0.47470737    -0.14700
C730        C  0.11275365  0.93076241  0.47486260    -0.29900
H731        H  0.17206578  0.93674671  0.45452603     0.14300
H732        H  0.09656226  0.94523081  0.49351783     0.14900
C733        C  0.29677224  0.12544548  0.67809479    -0.14700
C734        C  0.33548374  0.16105388  0.67067939    -0.29900
H735        H  0.28167497  0.11862438  0.71291930     0.14300
H736        H  0.35063048  0.16769357  0.63589058     0.14900
C737        C  0.84476369  0.44648201  0.86724222    -0.14700
C738        C  0.86458634  0.48961358  0.87496086    -0.29900
H739        H  0.81851529  0.43190087  0.84275356     0.14300
H740        H  0.89086546  0.50390627  0.89948934     0.14900
C741        C  0.78778844  0.23161223  0.85265772    -0.14700
C742        C  0.81241901  0.26936614  0.82869181    -0.29900
H743        H  0.79112347  0.23014894  0.89055130     0.14300
H744        H  0.81233629  0.27044971  0.79044233     0.14900
C745        C  0.98953431  0.47810635  0.97887624    -0.14700
C746        C  0.98193337  0.48601084  0.02330079    -0.29900
H747        H  0.01959167  0.50075461  0.96083172     0.14300
H748        H  0.95196509  0.46346929  0.04155056     0.14900
C749        C  0.14109956  0.18521153  0.00457743    -0.14700
C750        C  0.12512970  0.17762909  0.96091108    -0.29900
H751        H  0.12739122  0.19699441  0.03087954     0.14300
H752        H  0.13580783  0.16273051  0.93489365     0.14900
C753        C  0.15366140  0.30638412  0.80445562    -0.14700
C754        C  0.14626064  0.31675232  0.84787176    -0.29900
H755        H  0.13131668  0.27472964  0.79023520     0.14300
H756        H  0.16864379  0.34804729  0.86274303     0.14900
C757        C  0.97076670  0.28201749  0.89746414    -0.14700
C758        C  0.95856902  0.29999359  0.93162972    -0.29900
H759        H  0.96303277  0.28430613  0.86103534     0.14300
H760        H  0.96339759  0.29478101  0.96834042     0.14900
C761        C  0.93657217  0.12510388  0.99659527    -0.14700
C762        C  0.92779775  0.11544617  0.04282165    -0.29900
H763        H  0.91123301  0.10684793  0.97179644     0.14300
H764        H  0.95282366  0.13074387  0.06859862     0.14900
C765        C  0.48855088  0.12529147  0.36008377    -0.14700
C766        C  0.52888766  0.13961978  0.34457018    -0.29900
H767        H  0.47756402  0.10802213  0.39390539     0.14300
H768        H  0.53899988  0.15528557  0.30988972     0.14900
C769        C  0.71085386  0.18427697  0.33714037    -0.14700
C770        C  0.72299358  0.19296855  0.29159509    -0.29900
H771        H  0.73389954  0.20308806  0.36387302     0.14300
H772        H  0.70025103  0.17714008  0.26373102     0.14900
C773        C  0.48063930  0.99708058  0.50892226    -0.14700
C774        C  0.48985090  0.99038515  0.46466040    -0.29900
H775        H  0.50157382  0.02781425  0.52578249     0.14300
H776        H  0.46929455  0.95966626  0.44760506     0.14900
C777        C  0.77315334  0.81816586  0.49391605    -0.14700
C778        C  0.75534489  0.83864403  0.51615140    -0.29900
H779        H  0.77798213  0.82118018  0.45592508     0.14300
H780        H  0.74739596  0.83194095  0.55354386     0.14900
C781        C  0.68089985  0.00805542  0.41124610    -0.14700
C782        C  0.66454999  0.02536074  0.44141290    -0.29900
H783        H  0.68269407  0.01531746  0.37369323     0.14300
H784        H  0.66571829  0.02063605  0.47915966     0.14900
C785        C  0.80263489  0.02053049  0.54381315    -0.14700
C786        C  0.84545378  0.04024197  0.53834805    -0.29900
H787        H  0.78866546  0.03440878  0.56717121     0.14300
H788        H  0.86001572  0.02639502  0.51587783     0.14900
C789        C  0.64650630  0.81703888  0.32968054    -0.14700
C790        C  0.63573335  0.82440084  0.37292919    -0.29900
H791        H  0.67768208  0.83958116  0.31376013     0.14300
H792        H  0.60418206  0.80200196  0.38816750     0.14900
loop_ 
_geom_bond_atom_site_label_1 
_geom_bond_atom_site_label_2 
_geom_bond_distance 
_geom_bond_site_symmetry_2 
_ccdc_geom_bond_type 
O1           Cu9   1.985       .  S
O1           C11   1.274       .  A
O2           Cu9   1.983       .  S
O2           C12   1.274       .  A
O3           Cu9   2.010       .  S
O3           C13   1.277       .  A
O4           Cu9   2.025       .  S
O4           C14   1.281       .  A
O5          Cu10   2.001       .  S
O5           C14   1.275       .  A
O6          Cu10   2.009       .  S
O6           C13   1.278       .  A
O7          Cu10   2.028       .  S
O7           C12   1.280       .  A
O8          Cu10   2.037       .  S
O8           C11   1.281       .  A
Cu9         Cu10   2.376       .  S
C11         C781   1.474   1_565  S
C12         C778   1.466       .  S
C13         C785   1.472   1_565  S
C14         C790   1.476       .  S
O15         Cu23   1.973       .  S
O15          C25   1.272       .  A
O16         Cu23   1.988       .  S
O16          C26   1.274       .  A
O17         Cu23   2.047       .  S
O17          C27   1.283       .  A
O18         Cu23   2.031       .  S
O18          C28   1.281       .  A
O19         Cu24   1.977       .  S
O19          C28   1.272       .  A
O20         Cu24   1.968       .  S
O20          C27   1.272       .  A
O21         Cu24   2.035       .  S
O21          C26   1.282       .  A
O22         Cu24   2.032       .  S
O22          C25   1.280       .  A
Cu23        Cu24   2.376       .  S
C25         C766   1.460       .  S
C26         C782   1.474       .  S
C27         C774   1.479   1_545  S
C28         C769   1.465       .  S
O29         Cu37   2.055       .  S
O29          C39   1.284       .  A
O30         Cu37   2.053       .  S
O30          C40   1.283   1_455  A
O31         Cu37   1.968       .  S
O31          C41   1.274       .  A
O32         Cu37   1.988       .  S
O32          C42   1.273   1_455  A
O33         Cu38   2.051   1_655  S
O33          C42   1.284       .  A
O34         Cu38   2.051       .  S
O34          C41   1.282       .  A
O35         Cu38   1.984   1_655  S
O35          C40   1.273       .  A
O36         Cu38   1.968       .  S
O36          C39   1.272       .  A
Cu37        Cu38   2.370       .  S
C39         C754   1.482       .  S
C40         C761   1.476       .  S
C41         C750   1.484       .  S
C42         C757   1.483       .  S
O43         Cu51   2.034       .  S
O43          C53   1.281       .  A
O44         Cu51   2.030       .  S
O44          C54   1.279       .  A
O45         Cu51   1.994       .  S
O45          C55   1.277       .  A
O46         Cu51   1.999       .  S
O46          C56   1.275       .  A
O47         Cu52   2.028       .  S
O47          C56   1.281       .  A
O48         Cu52   2.018       .  S
O48          C55   1.278       .  A
O49         Cu52   1.991       .  S
O49          C54   1.274       .  A
O50         Cu52   2.007       .  S
O50          C53   1.276       .  A
Cu51        Cu52   2.374       .  S
C53         C758   1.479       .  S
C54         C737   1.467       .  S
C55         C742   1.475       .  S
C56         C745   1.477       .  S
O57         Cu65   2.026       .  S
O57          C67   1.279       .  A
O58         Cu65   2.040   1_565  S
O58          C68   1.282       .  A
O59         Cu65   1.997       .  S
O59          C69   1.274       .  A
O60         Cu65   1.993   1_565  S
O60          C70   1.275       .  A
O61         Cu66   2.030       .  S
O61          C70   1.280   1_545  A
O62         Cu66   2.031       .  S
O62          C69   1.282       .  A
O63         Cu66   1.990       .  S
O63          C68   1.274   1_545  A
O64         Cu66   1.992       .  S
O64          C67   1.275       .  A
Cu65        Cu66   2.375       .  S
C67         C722   1.467       .  S
C68         C725   1.476       .  S
C69         C733   1.479       .  S
C70         C729   1.472       .  S
O71         Cu79   2.023       .  S
O71          C81   1.281       .  A
O72         Cu79   2.009       .  S
O72          C82   1.276       .  A
O73         Cu79   1.985       .  S
O73          C83   1.276       .  A
O74         Cu79   1.996       .  S
O74          C84   1.275       .  A
O75         Cu80   2.036       .  S
O75          C84   1.281       .  A
O76         Cu80   2.036       .  S
O76          C83   1.280       .  A
O77         Cu80   1.997       .  S
O77          C82   1.278       .  A
O78         Cu80   1.994       .  S
O78          C81   1.274       .  A
Cu79        Cu80   2.375       .  S
C81         C773   1.473       .  S
C82         C717   1.472       .  S
C83         C713   1.478       .  S
C84         C726   1.475       .  S
O85         Cu93   1.994       .  S
O85          C95   1.274       .  A
O86         Cu93   1.986       .  S
O86          C96   1.276       .  A
O87         Cu93   2.025       .  S
O87          C97   1.279       .  A
O88         Cu93   2.029       .  S
O88          C98   1.280       .  A
O89         Cu94   1.999       .  S
O89          C98   1.275       .  A
O90         Cu94   1.999       .  S
O90          C97   1.276       .  A
O91         Cu94   2.032       .  S
O91          C96   1.280       .  A
O92         Cu94   2.035       .  S
O92          C95   1.283       .  A
Cu93        Cu94   2.374       .  S
C95         C734   1.478       .  S
C96         C710   1.477       .  S
C97         C701   1.470       .  S
C98         C706   1.473       .  S
O99        Cu107   1.980       .  S
O99         C109   1.273       .  A
O100       Cu107   1.981       .  S
O100        C110   1.273       .  A
O101       Cu107   2.009       .  S
O101        C111   1.277       .  A
O102       Cu107   2.026       .  S
O102        C112   1.281       .  A
O103       Cu108   2.000       .  S
O103        C112   1.275       .  A
O104       Cu108   2.008       .  S
O104        C111   1.277       .  A
O105       Cu108   2.028       .  S
O105        C110   1.280       .  A
O106       Cu108   2.043       .  S
O106        C109   1.282       .  A
Cu107      Cu108   2.376       .  S
C109        C705   1.474       .  S
C110        C693   1.464       .  S
C111        C697   1.468       .  S
C112        C753   1.476       .  S
O113       Cu121   2.047       .  S
O113        C123   1.283       .  A
O114       Cu121   2.031       .  S
O114        C124   1.280       .  A
O115       Cu121   1.974       .  S
O115        C125   1.275       .  A
O116       Cu121   1.988       .  S
O116        C126   1.273       .  A
O117       Cu122   2.041       .  S
O117        C126   1.283       .  A
O118       Cu122   2.037       .  S
O118        C125   1.280       .  A
O119       Cu122   1.989       .  S
O119        C124   1.276       .  A
O120       Cu122   1.983       .  S
O120        C123   1.274       .  A
Cu121      Cu122   2.373       .  S
C123        C681   1.483       .  S
C124        C689   1.480       .  S
C125        C677   1.475       .  S
C126        C685   1.476       .  S
O127       Cu135   2.046       .  S
O127        C137   1.283       .  A
O128       Cu135   2.045       .  S
O128        C138   1.282       .  A
O129       Cu135   1.975       .  S
O129        C139   1.272       .  A
O130       Cu135   1.973       .  S
O130        C140   1.272       .  A
O131       Cu136   2.049       .  S
O131        C140   1.284       .  A
O132       Cu136   2.042       .  S
O132        C139   1.283       .  A
O133       Cu136   1.975       .  S
O133        C138   1.271       .  A
O134       Cu136   1.982       .  S
O134        C137   1.273       .  A
Cu135      Cu136   2.374       .  S
C137        C686   1.477       .  S
C138        C669   1.467       .  S
C139        C673   1.470       .  S
C140        C789   1.481       .  S
O141       Cu149   1.984       .  S
O141        C151   1.274       .  A
O142       Cu149   1.998       .  S
O142        C152   1.275       .  A
O143       Cu149   2.039       .  S
O143        C153   1.280       .  A
O144       Cu149   2.036       .  S
O144        C154   1.282       .  A
O145       Cu150   1.993       .  S
O145        C154   1.274       .  A
O146       Cu150   1.975       .  S
O146        C153   1.275       .  A
O147       Cu150   2.033       .  S
O147        C152   1.280       .  A
O148       Cu150   2.042       .  S
O148        C151   1.282       .  A
Cu149      Cu150   2.373       .  S
C151        C746   1.480   1_455  S
C152        C665   1.473       .  S
C153        C657   1.478       .  S
C154        C661   1.476       .  S
O155       Cu163   2.001       .  S
O155        C165   1.275       .  A
O156       Cu163   2.004       .  S
O156        C166   1.278   1_554  A
O157       Cu163   2.029       .  S
O157        C167   1.280       .  A
O158       Cu163   2.041       .  S
O158        C168   1.282       .  A
O159       Cu164   1.985       .  S
O159        C168   1.274       .  A
O160       Cu164   1.983   1_556  S
O160        C167   1.273   1_556  A
O161       Cu164   2.012   1_556  S
O161        C166   1.277       .  A
O162       Cu164   2.032       .  S
O162        C165   1.282       .  A
Cu163      Cu164   2.375       .  S
C165        C682   1.480       .  S
C166        C654   1.471   1_655  S
C167        C650   1.464   1_554  S
C168        C662   1.475       .  S
O169       Cu177   2.008       .  S
O169        C179   1.278       .  A
O170       Cu177   1.996       .  S
O170        C180   1.276       .  A
O171       Cu177   2.042       .  S
O171        C181   1.282       .  A
O172       Cu177   2.027       .  S
O172        C182   1.279       .  A
O173       Cu178   1.987       .  S
O173        C182   1.274       .  A
O174       Cu178   1.998       .  S
O174        C181   1.275       .  A
O175       Cu178   2.038       .  S
O175        C180   1.282       .  A
O176       Cu178   2.022       .  S
O176        C179   1.279       .  A
Cu177      Cu178   2.374       .  S
C179        C670   1.477       .  S
C180        C642   1.483       .  S
C181        C645   1.480       .  S
C182        C637   1.463       .  S
O183       Cu191   2.000       .  S
O183        C193   1.275   1_545  A
O184       Cu191   1.985       .  S
O184        C194   1.276       .  A
O185       Cu191   2.025   1_565  S
O185        C195   1.280       .  A
O186       Cu191   2.034       .  S
O186        C196   1.282       .  A
O187       Cu192   1.982       .  S
O187        C196   1.273       .  A
O188       Cu192   1.999   1_565  S
O188        C195   1.276       .  A
O189       Cu192   2.046       .  S
O189        C194   1.282       .  A
O190       Cu192   2.043   1_565  S
O190        C193   1.283       .  A
Cu191      Cu192   2.373       .  S
C193        C646   1.481       .  S
C194        C762   1.485       .  S
C195        C633   1.473       .  S
C196        C630   1.475       .  S
O197       Cu205   2.034       .  S
O197        C207   1.280       .  A
O198       Cu205   2.038       .  S
O198        C208   1.282       .  A
O199       Cu205   1.979       .  S
O199        C209   1.273       .  A
O200       Cu205   1.990       .  S
O200        C210   1.275       .  A
O201       Cu206   2.028       .  S
O201        C210   1.280       .  A
O202       Cu206   2.035       .  S
O202        C209   1.282       .  A
O203       Cu206   1.992       .  S
O203        C208   1.274       .  A
O204       Cu206   1.969       .  S
O204        C207   1.275       .  A
Cu205      Cu206   2.375       .  S
C207        C770   1.474       .  S
C208        C621   1.477       .  S
C209        C629   1.475       .  S
C210        C625   1.469       .  S
O211       Cu219   2.043       .  S
O211        C221   1.283       .  A
O212       Cu219   2.039       .  S
O212        C222   1.281       .  A
O213       Cu219   1.972       .  S
O213        C223   1.272       .  A
O214       Cu219   1.979       .  S
O214        C224   1.273       .  A
O215       Cu220   2.054       .  S
O215        C224   1.284       .  A
O216       Cu220   2.044       .  S
O216        C223   1.282       .  A
O217       Cu220   1.975       .  S
O217        C222   1.272       .  A
O218       Cu220   1.986       .  S
O218        C221   1.274       .  A
Cu219      Cu220   2.374       .  S
C221        C622   1.477       .  S
C222        C613   1.465       .  S
C223        C658   1.469       .  S
C224        C617   1.484       .  S
O225       Cu233   1.982       .  S
O225        C235   1.273       .  A
O226       Cu233   1.983       .  S
O226        C236   1.273       .  A
O227       Cu233   2.015       .  S
O227        C237   1.278       .  A
O228       Cu233   2.033       .  S
O228        C238   1.282       .  A
O229       Cu234   2.001       .  S
O229        C238   1.275       .  A
O230       Cu234   2.006       .  S
O230        C237   1.277       .  A
O231       Cu234   2.029       .  S
O231        C236   1.280       .  A
O232       Cu234   2.036       .  S
O232        C235   1.281       .  A
Cu233      Cu234   2.376       .  S
C235        C609   1.470       .  S
C236        C606   1.465       .  S
C237        C721   1.472       .  S
C238        C618   1.479       .  S
O239       Cu247   1.982       .  S
O239        C249   1.273       .  A
O240       Cu247   1.986       .  S
O240        C250   1.274       .  A
O241       Cu247   2.025       .  S
O241        C251   1.279       .  A
O242       Cu247   2.041       .  S
O242        C252   1.284       .  A
O243       Cu248   1.989       .  S
O243        C252   1.273       .  A
O244       Cu248   1.998       .  S
O244        C251   1.276       .  A
O245       Cu248   2.029       .  S
O245        C250   1.279       .  A
O246       Cu248   2.037       .  S
O246        C249   1.281       .  A
Cu247      Cu248   2.375       .  S
C249        C610   1.471       .  S
C250        C690   1.464       .  S
C251        C601   1.471       .  S
C252        C598   1.478       .  S
O253       Cu261   2.030       .  S
O253        C263   1.280       .  A
O254       Cu261   2.042       .  S
O254        C264   1.282       .  A
O255       Cu261   1.997       .  S
O255        C265   1.274       .  A
O256       Cu261   1.991       .  S
O256        C266   1.276       .  A
O257       Cu262   2.033       .  S
O257        C266   1.280       .  A
O258       Cu262   2.033       .  S
O258        C265   1.283       .  A
O259       Cu262   1.989       .  S
O259        C264   1.274       .  A
O260       Cu262   1.983       .  S
O260        C263   1.274       .  A
Cu261      Cu262   2.375       .  S
C263        C698   1.468       .  S
C264        C590   1.478       .  S
C265        C597   1.480       .  S
C266        C593   1.476       .  S
O267       Cu275   2.032       .  S
O267        C277   1.281       .  A
O268       Cu275   2.025       .  S
O268        C278   1.278       .  A
O269       Cu275   1.992       .  S
O269        C279   1.275       .  A
O270       Cu275   2.003       .  S
O270        C280   1.276       .  A
O271       Cu276   2.029       .  S
O271        C280   1.280       .  A
O272       Cu276   2.026       .  S
O272        C279   1.278       .  A
O273       Cu276   1.987       .  S
O273        C278   1.277       .  A
O274       Cu276   1.996       .  S
O274        C277   1.276       .  A
Cu275      Cu276   2.373       .  S
C277        C585   1.480       .  S
C278        C777   1.475       .  S
C279        C582   1.465       .  S
C280        C589   1.474       .  S
O281       Cu289   1.997       .  S
O281        C291   1.276       .  A
O282       Cu289   2.008       .  S
O282        C292   1.278       .  A
O283       Cu289   2.023       .  S
O283        C293   1.279       .  A
O284       Cu289   2.030       .  S
O284        C294   1.280       .  A
O285       Cu290   1.987       .  S
O285        C294   1.274       .  A
O286       Cu290   1.986       .  S
O286        C293   1.274       .  A
O287       Cu290   2.016       .  S
O287        C292   1.278       .  A
O288       Cu290   2.033       .  S
O288        C291   1.281       .  A
Cu289      Cu290   2.375       .  S
C291        C586   1.480       .  S
C292        C738   1.476       .  S
C293        C574   1.465       .  S
C294        C577   1.471       .  S
O295       Cu303   1.981       .  S
O295        C305   1.273       .  A
O296       Cu303   1.984       .  S
O296        C306   1.274       .  A
O297       Cu303   2.037       .  S
O297        C307   1.282       .  A
O298       Cu303   2.017       .  S
O298        C308   1.278       .  A
O299       Cu304   1.994       .  S
O299        C308   1.277       .  A
O300       Cu304   1.988       .  S
O300        C307   1.275       .  A
O301       Cu304   2.032       .  S
O301        C306   1.281       .  A
O302       Cu304   2.023       .  S
O302        C305   1.279       .  A
Cu303      Cu304   2.376       .  S
C305        C718   1.463       .  S
C306        C578   1.471       .  S
C307        C569   1.479       .  S
C308        C565   1.472       .  S
O309       Cu317   2.019       .  S
O309        C319   1.278       .  A
O310       Cu317   2.036       .  S
O310        C320   1.281       .  A
O311       Cu317   2.008       .  S
O311        C321   1.277       .  A
O312       Cu317   2.006       .  S
O312        C322   1.277       .  A
O313       Cu318   2.020       .  S
O313        C322   1.278       .  A
O314       Cu318   2.025   1_565  S
O314        C321   1.280   1_565  A
O315       Cu318   1.991       .  S
O315        C320   1.275       .  A
O316       Cu318   1.993       .  S
O316        C319   1.275       .  A
Cu317      Cu318   2.376       .  S
C319        C557   1.463       .  S
C320        C562   1.475   1_545  S
C321        C641   1.480   1_546  S
C322        C702   1.472       .  S
O323       Cu331   2.021       .  S
O323        C333   1.278       .  A
O324       Cu331   2.028       .  S
O324        C334   1.280       .  A
O325       Cu331   1.999       .  S
O325        C335   1.276       .  A
O326       Cu331   1.992       .  S
O326        C336   1.278       .  A
O327       Cu332   2.028   1_554  S
O327        C336   1.279   1_554  A
O328       Cu332   2.028       .  S
O328        C335   1.281       .  A
O329       Cu332   2.002       .  S
O329        C334   1.276       .  A
O330       Cu332   1.993       .  S
O330        C333   1.275       .  A
Cu331      Cu332   2.373       .  S
C333        C653   1.465       .  S
C334        C561   1.474       .  S
C335        C570   1.477       .  S
C336        C553   1.482   1_566  S
O337       Cu345   2.026       .  S
O337        C347   1.278       .  A
O338       Cu345   2.028       .  S
O338        C348   1.280       .  A
O339       Cu345   1.986       .  S
O339        C349   1.275       .  A
O340       Cu345   1.989       .  S
O340        C350   1.277       .  A
O341       Cu346   2.021       .  S
O341        C350   1.278       .  A
O342       Cu346   2.029       .  S
O342        C349   1.280       .  A
O343       Cu346   2.005       .  S
O343        C348   1.277       .  A
O344       Cu346   1.994       .  S
O344        C347   1.275       .  A
Cu345      Cu346   2.374       .  S
C347        C709   1.465       .  S
C348        C545   1.477       .  S
C349        C549   1.477       .  S
C350        C573   1.474       .  S
O351       Cu359   2.019   1_554  S
O351        C361   1.278   1_554  A
O352       Cu359   2.031       .  S
O352        C362   1.281       .  A
O353       Cu359   1.999       .  S
O353        C363   1.276       .  A
O354       Cu359   1.990       .  S
O354        C364   1.276       .  A
O355       Cu360   2.034       .  S
O355        C364   1.280       .  A
O356       Cu360   2.034       .  S
O356        C363   1.281       .  A
O357       Cu360   1.990       .  S
O357        C362   1.274       .  A
O358       Cu360   1.996       .  S
O358        C361   1.278       .  A
Cu359      Cu360   2.374       .  S
C361        C649   1.477   1_556  S
C362        C541   1.477       .  S
C363        C546   1.478       .  S
C364        C634   1.477       .  S
O365       Cu373   1.988       .  S
O365        C375   1.274       .  A
O366       Cu373   1.996       .  S
O366        C376   1.277       .  A
O367       Cu373   2.028       .  S
O367        C377   1.280       .  A
O368       Cu373   2.037       .  S
O368        C378   1.281       .  A
O369       Cu374   1.981       .  S
O369        C378   1.274       .  A
O370       Cu374   1.981       .  S
O370        C377   1.273       .  A
O371       Cu374   2.017       .  S
O371        C376   1.278       .  A
O372       Cu374   2.035       .  S
O372        C375   1.282       .  A
Cu373      Cu374   2.375       .  S
C375        C533   1.478       .  S
C376        C558   1.473       .  S
C377        C741   1.466       .  S
C378        C537   1.473   1_545  S
O379       Cu387   1.987       .  S
O379        C389   1.274       .  A
O380       Cu387   1.994       .  S
O380        C390   1.275       .  A
O381       Cu387   2.038       .  S
O381        C391   1.282       .  A
O382       Cu387   2.037       .  S
O382        C392   1.281       .  A
O383       Cu388   1.986       .  S
O383        C392   1.274       .  A
O384       Cu388   1.984       .  S
O384        C391   1.274       .  A
O385       Cu388   2.027       .  S
O385        C390   1.281       .  A
O386       Cu388   2.034       .  S
O386        C389   1.280       .  A
Cu387      Cu388   2.374       .  S
C389        C594   1.466       .  S
C390        C538   1.472       .  S
C391        C542   1.478       .  S
C392        C714   1.471       .  S
O393       Cu401   2.029       .  S
O393        C403   1.279       .  A
O394       Cu401   2.033       .  S
O394        C404   1.282       .  A
O395       Cu401   1.993       .  S
O395        C405   1.275       .  A
O396       Cu401   1.984       .  S
O396        C406   1.273       .  A
O397       Cu402   2.031       .  S
O397        C406   1.280       .  A
O398       Cu402   2.034       .  S
O398        C405   1.281       .  A
O399       Cu402   1.990       .  S
O399        C404   1.274       .  A
O400       Cu402   1.983       .  S
O400        C403   1.276       .  A
Cu401      Cu402   2.374       .  S
C403        C605   1.476   1_655  S
C404        C534   1.477       .  S
C405        C529   1.475       .  S
C406        C786   1.466       .  S
O407       Cu415   2.025       .  S
O407        C417   1.281       .  A
O408       Cu415   2.019       .  S
O408        C418   1.278       .  A
O409       Cu415   1.983       .  S
O409        C419   1.273       .  A
O410       Cu415   1.996       .  S
O410        C420   1.275       .  A
O411       Cu416   2.032       .  S
O411        C420   1.281       .  A
O412       Cu416   2.024       .  S
O412        C419   1.279       .  A
O413       Cu416   1.993       .  S
O413        C418   1.277       .  A
O414       Cu416   1.994       .  S
O414        C417   1.274       .  A
Cu415      Cu416   2.375       .  S
C417        C526   1.474   1_455  S
C418        C694   1.476       .  S
C419        C566   1.461       .  S
C420        C530   1.475       .  S
O421       Cu429   1.978       .  S
O421        C431   1.272       .  A
O422       Cu429   1.969       .  S
O422        C432   1.272       .  A
O423       Cu429   2.048       .  S
O423        C433   1.283       .  A
O424       Cu429   2.046       .  S
O424        C434   1.282       .  A
O425       Cu430   1.966       .  S
O425        C434   1.273       .  A
O426       Cu430   1.986       .  S
O426        C433   1.273       .  A
O427       Cu430   2.049       .  S
O427        C432   1.284       .  A
O428       Cu430   2.036       .  S
O428        C431   1.281       .  A
Cu429      Cu430   2.373       .  S
C431        C678   1.467       .  S
C432        C525   1.479       .  S
C433        C521   1.478       .  S
C434        C626   1.479       .  S
O435       Cu443   1.993   1_655  S
O435        C445   1.276       .  A
O436       Cu443   2.001       .  S
O436        C446   1.274       .  A
O437       Cu443   2.040   1_655  S
O437        C447   1.282       .  A
O438       Cu443   2.030       .  S
O438        C448   1.279       .  A
O439       Cu444   1.994       .  S
O439        C448   1.275       .  A
O440       Cu444   1.994       .  S
O440        C447   1.274   1_455  A
O441       Cu444   2.021       .  S
O441        C446   1.282       .  A
O442       Cu444   2.023       .  S
O442        C445   1.279   1_455  A
Cu443      Cu444   2.374       .  S
C445        C581   1.474       .  S
C446        C517   1.479       .  S
C447        C522   1.477       .  S
C448        C730   1.469       .  S
O449       Cu457   2.020       .  S
O449        C459   1.278       .  A
O450       Cu457   2.016       .  S
O450        C460   1.280       .  A
O451       Cu457   2.005       .  S
O451        C461   1.276       .  A
O452       Cu457   2.000       .  S
O452        C462   1.276       .  A
O453       Cu458   2.022       .  S
O453        C462   1.278       .  A
O454       Cu458   2.035       .  S
O454        C461   1.281       .  A
O455       Cu458   2.004       .  S
O455        C460   1.275       .  A
O456       Cu458   1.993       .  S
O456        C459   1.277       .  A
Cu457      Cu458   2.373       .  S
C459        C765   1.476       .  S
C460        C509   1.473       .  S
C461        C513   1.478   1_545  S
C462        C602   1.469       .  S
O463       Cu471   2.045       .  S
O463        C473   1.282       .  A
O464       Cu471   2.047       .  S
O464        C474   1.283       .  A
O465       Cu471   1.968       .  S
O465        C475   1.270       .  A
O466       Cu471   1.977       .  S
O466        C476   1.275       .  A
O467       Cu472   2.036       .  S
O467        C476   1.280       .  A
O468       Cu472   2.051       .  S
O468        C475   1.285       .  A
O469       Cu472   1.989       .  S
O469        C474   1.274       .  A
O470       Cu472   1.982       .  S
O470        C473   1.275       .  A
Cu471      Cu472   2.373       .  S
C473        C666   1.480       .  S
C474        C514   1.479       .  S
C475        C518   1.473       .  S
C476        C638   1.480       .  S
O477       Cu485   1.978       .  S
O477        C487   1.272       .  A
O478       Cu485   1.963       .  S
O478        C488   1.272       .  A
O479       Cu485   2.046       .  S
O479        C489   1.283       .  A
O480       Cu485   2.044       .  S
O480        C490   1.282       .  A
O481       Cu486   1.972       .  S
O481        C490   1.271       .  A
O482       Cu486   1.991       .  S
O482        C489   1.274       .  A
O483       Cu486   2.056       .  S
O483        C488   1.284       .  A
O484       Cu486   2.044   1_556  S
O484        C487   1.282   1_556  A
Cu485      Cu486   2.373       .  S
C487        C749   1.468       .  S
C488        C510   1.482       .  S
C489        C505   1.480       .  S
C490        C554   1.466       .  S
O491       Cu499   2.005       .  S
O491        C501   1.279       .  A
O492       Cu499   2.010       .  S
O492        C502   1.277       .  A
O493       Cu499   2.012       .  S
O493        C503   1.278       .  A
O494       Cu499   2.004       .  S
O494        C504   1.275       .  A
O495       Cu500   2.018       .  S
O495        C504   1.280       .  A
O496       Cu500   2.004       .  S
O496        C503   1.277       .  A
O497       Cu500   2.028       .  S
O497        C502   1.280       .  A
O498       Cu500   2.017       .  S
O498        C501   1.276       .  A
Cu499      Cu500   2.375       .  S
C501        C674   1.476       .  S
C502        C506   1.478       .  S
C503        C550   1.473       .  S
C504        C614   1.474       .  S
C505        C506   1.349       .  D
C505        H507   1.086       .  S
C506        H508   1.087       .  S
C509        C510   1.352       .  D
C509        H511   1.087       .  S
C510        H512   1.086       .  S
C513        C514   1.350       .  D
C513        H515   1.087       .  S
C514        H516   1.086       .  S
C517        C518   1.338       .  D
C517        H519   1.087       .  S
C518        H520   1.087       .  S
C521        C522   1.351       .  D
C521        H523   1.086       .  S
C522        H524   1.087       .  S
C525        C526   1.352       .  D
C525        H527   1.086   1_655  S
C526        H528   1.087       .  S
C529        C530   1.349   1_655  D
C529        H531   1.086       .  S
C530        H532   1.087       .  S
C533        C534   1.351       .  D
C533        H535   1.086       .  S
C534        H536   1.086       .  S
C537        C538   1.348       .  D
C537        H539   1.086       .  S
C538        H540   1.087       .  S
C541        C542   1.351       .  D
C541        H543   1.086       .  S
C542        H544   1.086       .  S
C545        C546   1.348       .  D
C545        H547   1.086       .  S
C546        H548   1.087       .  S
C549        C550   1.347   1_556  D
C549        H551   1.086       .  S
C550        H552   1.087       .  S
C553        C554   1.343       .  D
C553        H555   1.086       .  S
C554        H556   1.087   1_554  S
C557        C558   1.342       .  D
C557        H559   1.086       .  S
C558        H560   1.087       .  S
C561        C562   1.347       .  D
C561        H563   1.087       .  S
C562        H564   1.086       .  S
C565        C566   1.342       .  D
C565        H567   1.087       .  S
C566        H568   1.086       .  S
C569        C570   1.350       .  D
C569        H571   1.086       .  S
C570        H572   1.086       .  S
C573        C574   1.342       .  D
C573        H575   1.087       .  S
C574        H576   1.087       .  S
C577        C578   1.346   1_655  D
C577        H579   1.087       .  S
C578        H580   1.087   1_455  S
C581        C582   1.342       .  D
C581        H583   1.087       .  S
C582        H584   1.086       .  S
C585        C586   1.350       .  D
C585        H587   1.086       .  S
C586        H588   1.086       .  S
C589        C590   1.349       .  D
C589        H591   1.086       .  S
C590        H592   1.087       .  S
C593        C594   1.344       .  D
C593        H595   1.087       .  S
C594        H596   1.087       .  S
C597        C598   1.340       .  D
C597        H599   1.087       .  S
C598        H600   1.087       .  S
C601        C602   1.342       .  D
C601        H603   1.087       .  S
C602        H604   1.087       .  S
C605        C606   1.343       .  D
C605        H607   1.086       .  S
C606        H608   1.088       .  S
C609        C610   1.348       .  D
C609        H611   1.087       .  S
C610        H612   1.087       .  S
C613        C614   1.340       .  D
C613        H615   1.086       .  S
C614        H616   1.087       .  S
C617        C618   1.354       .  D
C617        H619   1.086       .  S
C618        H620   1.086       .  S
C621        C622   1.351   1_655  D
C621        H623   1.087       .  S
C622        H624   1.086   1_455  S
C625        C626   1.346       .  D
C625        H627   1.088       .  S
C626        H628   1.086       .  S
C629        C630   1.351       .  D
C629        H631   1.086       .  S
C630        H632   1.086       .  S
C633        C634   1.344   1_554  D
C633        H635   1.088       .  S
C634        H636   1.086       .  S
C637        C638   1.345       .  D
C637        H639   1.087       .  S
C638        H640   1.086       .  S
C641        C642   1.351       .  D
C641        H643   1.086   1_554  S
C642        H644   1.086   1_565  S
C645        C646   1.351       .  D
C645        H647   1.086       .  S
C646        H648   1.086       .  S
C649        C650   1.341   1_554  D
C649        H651   1.087       .  S
C650        H652   1.087       .  S
C653        C654   1.341       .  D
C653        H655   1.086       .  S
C654        H656   1.087       .  S
C657        C658   1.342       .  D
C657        H659   1.086       .  S
C658        H660   1.088       .  S
C661        C662   1.350   1_455  D
C661        H663   1.087       .  S
C662        H664   1.086   1_655  S
C665        C666   1.345       .  D
C665        H667   1.088       .  S
C666        H668   1.086       .  S
C669        C670   1.345       .  D
C669        H671   1.086       .  S
C670        H672   1.087       .  S
C673        C674   1.338       .  D
C673        H675   1.088       .  S
C674        H676   1.086       .  S
C677        C678   1.341       .  D
C677        H679   1.086       .  S
C678        H680   1.088       .  S
C681        C682   1.353       .  D
C681        H683   1.086       .  S
C682        H684   1.087       .  S
C685        C686   1.352       .  D
C685        H687   1.087       .  S
C686        H688   1.086       .  S
C689        C690   1.345       .  D
C689        H691   1.087       .  S
C690        H692   1.086       .  S
C693        C694   1.341       .  D
C693        H695   1.087       .  S
C694        H696   1.087       .  S
C697        C698   1.342       .  D
C697        H699   1.087       .  S
C698        H700   1.086       .  S
C701        C702   1.342       .  D
C701        H703   1.086       .  S
C702        H704   1.087       .  S
C705        C706   1.348       .  D
C705        H707   1.086       .  S
C706        H708   1.087       .  S
C709        C710   1.344       .  D
C709        H711   1.086       .  S
C710        H712   1.087       .  S
C713        C714   1.343       .  D
C713        H715   1.086       .  S
C714        H716   1.088       .  S
C717        C718   1.340       .  D
C717        H719   1.087       .  S
C718        H720   1.088       .  S
C721        C722   1.342       .  D
C721        H723   1.087       .  S
C722        H724   1.086       .  S
C725        C726   1.349       .  D
C725        H727   1.086       .  S
C726        H728   1.087       .  S
C729        C730   1.344       .  D
C729        H731   1.087       .  S
C730        H732   1.087       .  S
C733        C734   1.340       .  D
C733        H735   1.087       .  S
C734        H736   1.087       .  S
C737        C738   1.342       .  D
C737        H739   1.086       .  S
C738        H740   1.087       .  S
C741        C742   1.341       .  D
C741        H743   1.087       .  S
C742        H744   1.087       .  S
C745        C746   1.351   1_556  D
C745        H747   1.086   1_655  S
C746        H748   1.086       .  S
C749        C750   1.346   1_554  D
C749        H751   1.087       .  S
C750        H752   1.086       .  S
C753        C754   1.353       .  D
C753        H755   1.087       .  S
C754        H756   1.086       .  S
C757        C758   1.352       .  D
C757        H759   1.086       .  S
C758        H760   1.086       .  S
C761        C762   1.345   1_556  D
C761        H763   1.088       .  S
C762        H764   1.086       .  S
C765        C766   1.342       .  D
C765        H767   1.087       .  S
C766        H768   1.087       .  S
C769        C770   1.341       .  D
C769        H771   1.088       .  S
C770        H772   1.086       .  S
C773        C774   1.351       .  D
C773        H775   1.087   1_565  S
C774        H776   1.086       .  S
C777        C778   1.342       .  D
C777        H779   1.086       .  S
C778        H780   1.088       .  S
C781        C782   1.349       .  D
C781        H783   1.086       .  S
C782        H784   1.087       .  S
C785        C786   1.342       .  D
C785        H787   1.087       .  S
C786        H788   1.086       .  S
C789        C790   1.352       .  D
C789        H791   1.086       .  S
C790        H792   1.087       .  S
