geometry optimzed in LAMMPS
_audit_creation_date              2020-12-01 
_audit_creation_method            'lammps2cif' 
_symmetry_space_group_name_H-M    'P1' 
_symmetry_Int_Tables_number       1 
_symmetry_cell_setting            triclinic 
loop_ 
_symmetry_equiv_pos_as_xyz 
  x,y,z 
_cell_length_a                    43.82294279 
_cell_length_b                    43.69102362708672 
_cell_length_c                    62.952392809123054 
_cell_angle_alpha                 90.58101046939883 
_cell_angle_beta                  89.62538380328922 
_cell_angle_gamma                 120.00207029416778 
loop_ 
_atom_site_label 
_atom_site_type_symbol 
_atom_site_fract_x 
_atom_site_fract_y 
_atom_site_fract_z 
_atom_site_charge 
O1          O  0.02929679  0.40530151  0.28351619    -0.73600
O2          O  0.01128665  0.38849120  0.22242722    -0.74500
O3          O  0.01763124  0.44241368  0.25088449    -0.63200
O4          O  0.01625607  0.34748687  0.25547892    -0.71600
O5          O  0.45939787  0.32299007  0.26247114    -0.71100
O6          O  0.46011906  0.41168939  0.25642987    -0.62400
O7          O  0.45345202  0.36016105  0.22731974    -0.74900
O8          O  0.47258893  0.38038926  0.29131458    -0.73700
Cu9        Cu  0.02071325  0.39676713  0.25290000     1.04600
Cu10       Cu  0.45942909  0.36762370  0.25964826     1.04300
C11         C  0.00494755  0.39760558  0.29702109     0.92600
C12         C  0.48035765  0.37293597  0.21486631     0.91800
C13         C  0.98773713  0.44094448  0.25337649     0.83900
C14         C  0.98624857  0.31987907  0.25933262     0.90200
O15         O  0.14273634  0.50161071  0.41162005    -0.73600
O16         O  0.05189001  0.49631310  0.42358412    -0.74500
O17         O  0.10736022  0.50216876  0.44962697    -0.63200
O18         O  0.08273333  0.48895679  0.38550292    -0.71600
O19         O  0.06164792  0.43179983  0.39073963    -0.71100
O20         O  0.07890402  0.44368317  0.45175651    -0.62400
O21         O  0.02383016  0.43780076  0.42529831    -0.74900
O22         O  0.12024830  0.44416225  0.41659045    -0.73700
Cu23       Cu  0.09723179  0.49937504  0.41740172     1.04600
Cu24       Cu  0.07039299  0.43737938  0.42119460     1.04300
C25         C  0.14695158  0.47495816  0.41300289     0.92600
C26         C  0.02350112  0.46709233  0.42567555     0.91800
C27         C  0.09543913  0.47377725  0.46064717     0.83900
C28         C  0.06713820  0.45688249  0.37846037     0.90200
O29         O  0.48562145  0.17196776  0.26612008    -0.73600
O30         O  0.48947679  0.08587415  0.25407845    -0.74500
O31         O  0.49840252  0.14314208  0.22895564    -0.63200
O32         O  0.47054922  0.11040705  0.29094716    -0.71600
O33         O  0.41474731  0.08555137  0.28093115    -0.71100
O34         O  0.44156696  0.11318985  0.22137965    -0.62400
O35         O  0.43234199  0.05558773  0.24660129    -0.74900
O36         O  0.43012506  0.14740052  0.25593630    -0.73700
Cu37       Cu  0.48794627  0.12891699  0.26045173     1.04600
Cu38       Cu  0.42769276  0.09956291  0.25099483     1.04300
C39         C  0.45902158  0.17495509  0.26161396     0.92600
C40         C  0.46223756  0.05720320  0.24881838     0.91800
C41         C  0.47327049  0.13237393  0.21534271     0.83900
C42         C  0.43744748  0.09122751  0.29516583     0.90200
O43         O  0.29348274  0.47431526  0.40616526    -0.73600
O44         O  0.37911410  0.46873200  0.41438992    -0.74500
O45         O  0.32485788  0.46098916  0.44230430    -0.63200
O46         O  0.35392965  0.98968487  0.37934657    -0.71600
O47         O  0.38083577  0.04497202  0.39079545    -0.71100
O48         O  0.35420174  0.01824569  0.44981729    -0.62400
O49         O  0.41072224  0.02518567  0.42439624    -0.74900
O50         O  0.31972416  0.03052540  0.41604017    -0.73700
Cu51       Cu  0.33654526  0.47141317  0.41009036     1.04600
Cu52       Cu  0.36722971  0.03168862  0.42046497     1.04300
C53         C  0.29171605  0.00182028  0.41045691     0.92600
C54         C  0.40839436  0.99499001  0.42081695     0.91800
C55         C  0.33695957  0.98661334  0.45614857     0.83900
C56         C  0.37378478  0.02299264  0.37570187     0.90200
O57         O  0.12850278  0.02699062  0.61688220    -0.73600
O58         O  0.13128779  0.00161646  0.55737783    -0.74500
O59         O  0.08365914  0.01359717  0.58145231    -0.63200
O60         O  0.17371044  0.00882234  0.59282761    -0.71600
O61         O  0.13908476  0.45201577  0.60009075    -0.71100
O62         O  0.05291709  0.45732922  0.59058048    -0.62400
O63         O  0.09648960  0.44449441  0.56366069    -0.74900
O64         O  0.09575826  0.97140119  0.62670511    -0.73700
Cu65       Cu  0.13060082  0.01470107  0.58703082     1.04600
Cu66       Cu  0.09528706  0.45430645  0.59572291     1.04300
C67         C  0.11068027  0.00465487  0.63112941     0.92600
C68         C  0.11338480  0.97010475  0.55059962     0.91800
C69         C  0.05383982  0.98500084  0.58373311     0.83900
C70         C  0.16968606  0.97832121  0.59719323     0.90200
O71         O  0.13724804  0.09110040  0.78550554    -0.73600
O72         O  0.13095305  0.06491790  0.72503853    -0.74500
O73         O  0.17887074  0.12697964  0.74963720    -0.63200
O74         O  0.08760416  0.03314989  0.76040964    -0.71600
O75         O  0.05843844  0.06196755  0.75566353    -0.71100
O76         O  0.14558576  0.15046997  0.74258017    -0.62400
O77         O  0.09786091  0.08873821  0.71779969    -0.74900
O78         O  0.10783329  0.11949321  0.78055397    -0.73700
Cu79       Cu  0.13495229  0.07829779  0.75531226     1.04600
Cu80       Cu  0.10151914  0.10625121  0.74885637     1.04300
C81         C  0.12375009  0.10879305  0.79293214     0.92600
C82         C  0.11203496  0.07027925  0.71210140     0.91800
C83         C  0.17597707  0.15401735  0.74493843     0.83900
C84         C  0.05853650  0.03360407  0.75958715     0.90200
O85         O  0.41093751  0.49531765  0.58476835    -0.73600
O86         O  0.31891793  0.48517289  0.59935975    -0.74500
O87         O  0.37043342  0.47607976  0.62221402    -0.63200
O88         O  0.35772976  0.49882482  0.56089659    -0.71600
O89         O  0.33322236  0.44178342  0.55372668    -0.71100
O90         O  0.34330209  0.41951524  0.61270981    -0.62400
O91         O  0.29050243  0.42854003  0.59032714    -0.74900
O92         O  0.38758717  0.43863896  0.57703107    -0.73700
Cu93       Cu  0.36528918  0.49078103  0.59210799     1.04600
Cu94       Cu  0.33760895  0.43009154  0.58317055     1.04300
C95         C  0.41492215  0.46945766  0.57956970     0.92600
C96         C  0.29008975  0.45644590  0.59673399     0.91800
C97         C  0.35973503  0.44354746  0.62652400     0.83900
C98         C  0.34333701  0.47300098  0.54754698     0.90200
O99         O  0.33983042  0.36203707  0.78140101    -0.73600
O100        O  0.33989342  0.38639782  0.72236778    -0.74500
O101        O  0.29408932  0.32619134  0.74766774    -0.63200
O102        O  0.38894008  0.41876240  0.75584184    -0.71600
O103        O  0.41478206  0.38779094  0.74748747    -0.71100
O104        O  0.32486451  0.30122081  0.73744686    -0.62400
O105        O  0.37107894  0.36230026  0.71154618    -0.74900
O106        O  0.36778565  0.33256535  0.77409362    -0.73700
Cu107      Cu  0.33957152  0.37419913  0.75201264     1.04600
Cu108      Cu  0.37039765  0.34472504  0.74223659     1.04300
C109        C  0.35336911  0.34397976  0.78747414     0.92600
C110        C  0.35700318  0.38148293  0.70780793     0.91800
C111        C  0.29527735  0.29845859  0.74193986     0.83900
C112        C  0.41705223  0.41694035  0.75261952     0.90200
O113        O  0.30686497  0.33434506  0.92670329    -0.73600
O114        O  0.39684512  0.42014325  0.91498041    -0.74500
O115        O  0.34252248  0.37044247  0.88885571    -0.63200
O116        O  0.36664141  0.38278364  0.95275715    -0.71600
O117        O  0.38919600  0.34788557  0.94761510    -0.71100
O118        O  0.37010855  0.33952621  0.88676757    -0.62400
O119        O  0.42519048  0.39006808  0.91248440    -0.74900
O120        O  0.32982413  0.29961095  0.92228042    -0.73700
Cu121      Cu  0.35199189  0.37778939  0.92105422     1.04600
Cu122      Cu  0.37922967  0.34291929  0.91721065     1.04300
C123        C  0.30297411  0.30354153  0.92565971     0.92600
C124        C  0.42513489  0.41948725  0.91206040     0.91800
C125        C  0.35488105  0.35411151  0.87784748     0.83900
C126        C  0.38401199  0.36830320  0.95965915     0.90200
O127        O  0.44464493  0.36363297  0.11663587    -0.73600
O128        O  0.42230486  0.36474855  0.05670753    -0.74500
O129        O  0.43670936  0.31820419  0.08207994    -0.63200
O130        O  0.43730363  0.41238873  0.09153419    -0.71600
O131        O  0.49388029  0.43861615  0.08346136    -0.71100
O132        O  0.49341928  0.35042615  0.07431318    -0.62400
O133        O  0.47864284  0.39432382  0.04754053    -0.74900
O134        O  0.50222891  0.39296835  0.11064010    -0.73700
Cu135      Cu  0.43311812  0.36348405  0.08685525     1.04600
Cu136      Cu  0.49391747  0.39492167  0.07860244     1.04300
C137        C  0.47596616  0.37849556  0.12354480     0.92600
C138        C  0.44585857  0.38037466  0.04264175     0.91800
C139        C  0.46649519  0.32044329  0.07755711     0.83900
C140        C  0.46733804  0.44075628  0.08938818     0.90200
O141        O  0.07195003  0.06498497  0.92461935    -0.73600
O142        O  0.15649556  0.15659164  0.93436841    -0.74500
O143        O  0.09461718  0.11279394  0.95948004    -0.63200
O144        O  0.12929565  0.11027716  0.89872541    -0.71600
O145        O  0.09985295  0.13642532  0.88825691    -0.71100
O146        O  0.06848656  0.14050801  0.94640735    -0.62400
O147        O  0.13123388  0.18552264  0.92186613    -0.74900
O148        O  0.04090789  0.08872343  0.91325255    -0.73700
Cu149      Cu  0.11410575  0.11038198  0.92978872     1.04600
Cu150      Cu  0.08418285  0.13886641  0.91711678     1.04300
C151        C  0.04315521  0.06126499  0.91786725     0.92600
C152        C  0.15879494  0.18554204  0.92885372     0.91800
C153        C  0.07493612  0.12666707  0.96216013     0.83900
C154        C  0.11887687  0.12287009  0.88385745     0.90200
O155        O  0.46781788  0.17291654  0.07362956    -0.73600
O156        O  0.46749423  0.08488378  0.08450794    -0.74500
O157        O  0.45997310  0.13268188  0.11092416    -0.63200
O158        O  0.48195964  0.12606897  0.04758655    -0.71600
O159        O  0.03834579  0.15690948  0.05617934    -0.71100
O160        O  0.01735322  0.16361807  0.11620548    -0.62400
O161        O  0.02427592  0.11296237  0.09198051    -0.74900
O162        O  0.02447248  0.20559329  0.08064878    -0.73700
Cu163      Cu  0.46736195  0.12838477  0.07877704     1.04600
Cu164      Cu  0.02814552  0.16106750  0.08632676     1.04300
C165        C  0.99468485  0.20318409  0.07631199     0.92600
C166        C  0.99458743  0.08406792  0.09026345     0.91800
C167        C  0.48639564  0.14832178  0.12364043     0.83900
C168        C  0.01457786  0.13910525  0.04255516     0.90200
C169        C  0.05382705  0.12408909  0.02170405    -0.09800
C170        C  0.02665327  0.13251433  0.02167497     0.06400
C171        C  0.01454714  0.13712201  0.00204163    -0.03500
C172        C  0.03026381  0.13438908  0.98310872    -0.08000
C173        C  0.05823235  0.12688570  0.98305600     0.05500
C174        C  0.06937778  0.12097803  0.00281336    -0.03000
Br175      Br  0.10658884  0.11017890  0.00548101    -0.02700
H176        H  0.06345575  0.12030715  0.03669725     0.09500
H177        H  0.02069978  0.13875183  0.96827894     0.07500
Br178      Br  0.47876266  0.15000084  0.00031042    -0.03100
C179        C  0.45542245  0.22846725  0.06978571    -0.09800
C180        C  0.48925649  0.23442303  0.07543821     0.06400
C181        C  0.01470503  0.26880410  0.08190995    -0.03500
C182        C  0.50620891  0.29576120  0.08247667    -0.08000
C183        C  0.47236889  0.28963541  0.07701666     0.05500
C184        C  0.44679449  0.25537484  0.07069979    -0.03000
Br185      Br  0.40014461  0.24387938  0.06252118    -0.02700
H186        H  0.43500248  0.20238819  0.06483314     0.09500
H187        H  0.02627128  0.32180228  0.08769662     0.07500
Br188      Br  0.06129928  0.28127993  0.09100498    -0.03100
C189        C  0.00864642  0.50549143  0.09082788    -0.09800
C190        C  0.47371552  0.47720741  0.09325753     0.06400
C191        C  0.44730007  0.48532032  0.09857565    -0.03500
C192        C  0.45592528  0.02087427  0.09917751    -0.08000
C193        C  0.49014659  0.04876201  0.09432940     0.05500
C194        C  0.01689855  0.04072989  0.09093841    -0.03000
Br195      Br  0.06482031  0.07599015  0.08500951    -0.02700
H196        H  0.03007134  0.50047524  0.08765232     0.09500
H197        H  0.43498143  0.02653005  0.10263244     0.07500
Br198      Br  0.39958240  0.45003927  0.10490208    -0.03100
C199        C  0.22215950  0.21522437  0.93976906    -0.09800
C200        C  0.19469213  0.21785007  0.92974791     0.06400
C201        C  0.20363938  0.24955166  0.91910328    -0.03500
C202        C  0.23897102  0.27663531  0.91808054    -0.08000
C203        C  0.26633551  0.27325471  0.92735439     0.05500
C204        C  0.25747357  0.24232936  0.93863039    -0.03000
Br205      Br  0.29211438  0.23645104  0.95367944    -0.02700
H206        H  0.21635047  0.19158521  0.94839668     0.09500
H207        H  0.24520606  0.30049888  0.90954933     0.07500
Br208      Br  0.16970149  0.25764255  0.90490721    -0.03100
C209        C  0.48531435  0.46147873  0.92381834    -0.09800
C210        C  0.45765882  0.45396718  0.91001457     0.06400
C211        C  0.45826541  0.48187577  0.89842664    -0.03500
C212        C  0.48606662  0.01668289  0.90108010    -0.08000
C213        C  0.01328625  0.02445392  0.91552710     0.05500
C214        C  0.01249663  0.99612484  0.92699238    -0.03000
Br215      Br  0.04497482  0.00227677  0.94931358    -0.02700
H216        H  0.98438051  0.44063616  0.93334142     0.09500
H217        H  0.48623808  0.03766454  0.89197381     0.07500
Br218      Br  0.42142457  0.47399876  0.87893702    -0.03100
C219        C  0.43233635  0.37409659  0.98280390    -0.09800
C220        C  0.40107513  0.37583059  0.98095828     0.06400
C221        C  0.38711904  0.38271704  0.99937111    -0.03500
C222        C  0.40320083  0.38561811  0.01910646    -0.08000
C223        C  0.43350882  0.38221671  0.02099371     0.05500
C224        C  0.44847578  0.37718725  0.00245254    -0.03000
Br225      Br  0.48879280  0.37092132  0.00308894    -0.02700
H226        H  0.44402444  0.36942085  0.96884117     0.09500
H227        H  0.39136220  0.38969855  0.03320539     0.07500
Br228      Br  0.34498289  0.38579007  0.99886800    -0.03100
C229        C  0.32190718  0.33199084  0.84394263    -0.09800
C230        C  0.35390662  0.35249764  0.85452631     0.06400
C231        C  0.38578575  0.36603358  0.84300679    -0.03500
C232        C  0.38532304  0.35932277  0.82123010    -0.08000
C233        C  0.35338009  0.33943454  0.81051125     0.05500
C234        C  0.32147409  0.32567442  0.82204188    -0.03000
Br235      Br  0.27663591  0.29875575  0.80828129    -0.02700
H236        H  0.29736736  0.32052065  0.85272430     0.09500
H237        H  0.40985229  0.37165185  0.81241111     0.07500
Br238      Br  0.43077319  0.39568328  0.85608148    -0.03100
C239        C  0.35304639  0.44187785  0.66550407    -0.09800
C240        C  0.36508988  0.43232041  0.64755974     0.06400
C241        C  0.37742641  0.40813172  0.64964912    -0.03500
C242        C  0.37512919  0.39204975  0.66928597    -0.08000
C243        C  0.36075974  0.39978957  0.68716573     0.05500
C244        C  0.35088033  0.42627715  0.68512892    -0.03000
Br245      Br  0.33415393  0.44386498  0.70792110    -0.02700
H246        H  0.34383676  0.46061612  0.66406759     0.09500
H247        H  0.38420286  0.37319466  0.67046057     0.07500
Br248      Br  0.39874103  0.39717904  0.62623601    -0.03100
C249        C  0.12478739  0.08840028  0.82942294    -0.09800
C250        C  0.12588354  0.11482092  0.81622050     0.06400
C251        C  0.12973151  0.14585785  0.82564707    -0.03500
C252        C  0.13010337  0.14890959  0.84783063    -0.08000
C253        C  0.12690783  0.12155655  0.86106403     0.05500
C254        C  0.12522563  0.09145426  0.85158927    -0.03000
Br255      Br  0.11997982  0.05217801  0.86784618    -0.02700
H256        H  0.12225632  0.06445163  0.82246340     0.09500
H257        H  0.13189799  0.17252515  0.85482639     0.07500
Br258      Br  0.13578078  0.18522879  0.80914018    -0.03100
C259        C  0.01529815  0.47655182  0.74449085    -0.09800
C260        C  0.02397334  0.00122686  0.76087025     0.06400
C261        C  0.49714820  0.99938802  0.77427041    -0.03500
C262        C  0.46204288  0.97250323  0.77124612    -0.08000
C263        C  0.45317368  0.44762828  0.75455328     0.05500
C264        C  0.48040370  0.45022677  0.74102806    -0.03000
Br265      Br  0.47166006  0.42121891  0.71606103    -0.02700
H266        H  0.03541336  0.47903070  0.73338616     0.09500
H267        H  0.44177260  0.97069077  0.78195973     0.07500
Br268      Br  0.00719894  0.03271466  0.79686522    -0.03100
C269        C  0.20152174  0.21935849  0.74742382    -0.09800
C270        C  0.20690389  0.19056142  0.74325536     0.06400
C271        C  0.24109398  0.19791625  0.73784729    -0.03500
C272        C  0.26866843  0.23308821  0.73685176    -0.08000
C273        C  0.26353138  0.26203044  0.74140553     0.05500
C274        C  0.22912767  0.25454567  0.74667613    -0.03000
Br275      Br  0.21744824  0.29044486  0.75339711    -0.02700
H276        H  0.17553460  0.21453425  0.75176813     0.09500
H277        H  0.29462098  0.23759383  0.73275081     0.07500
Br278      Br  0.25191534  0.16145815  0.73104954    -0.03100
C279        C  0.45661591  0.44752021  0.57150757    -0.09800
C280        C  0.45160954  0.47561428  0.57770561     0.06400
C281        C  0.48169614  0.00819870  0.58550202    -0.03500
C282        C  0.01512555  0.01139765  0.58494500    -0.08000
C283        C  0.01971933  0.98301373  0.57925814     0.05500
C284        C  0.49001870  0.45070197  0.57211118    -0.03000
Br285      Br  0.99344927  0.41101598  0.56241410    -0.02700
H286        H  0.43428910  0.42250296  0.56668116     0.09500
H287        H  0.03738093  0.03564050  0.59082353     0.07500
Br288      Br  0.47997516  0.04833563  0.59695666    -0.03100
C289        C  0.22681586  0.98915972  0.61285308    -0.09800
C290        C  0.19993828  0.97186307  0.59784896     0.06400
C291        C  0.20082186  0.44594740  0.58436273    -0.03500
C292        C  0.22901691  0.43930239  0.58525942    -0.08000
C293        C  0.25683402  0.45765084  0.59960467     0.05500
C294        C  0.25472623  0.98206753  0.61408560    -0.03000
Br295      Br  0.28856165  0.00520649  0.63639632    -0.02700
H296        H  0.22581409  0.00783810  0.62389807     0.09500
H297        H  0.23001727  0.42096226  0.57393453     0.07500
Br298      Br  0.16510951  0.42071463  0.56335991    -0.03100
C299        C  0.11821939  0.05591978  0.65316870    -0.09800
C300        C  0.10723895  0.01939514  0.65211486     0.06400
C301        C  0.09364634  0.99941047  0.67082357    -0.03500
C302        C  0.09379071  0.01642988  0.68995915    -0.08000
C303        C  0.10620866  0.05306062  0.69093323     0.05500
C304        C  0.11768965  0.07260305  0.67218155    -0.03000
Br305      Br  0.13573148  0.12266103  0.67208342    -0.02700
H306        H  0.12798778  0.07214492  0.63912138     0.09500
H307        H  0.08487018  0.00103178  0.70437447     0.07500
Br308      Br  0.07557787  0.94937750  0.67175542    -0.03100
C309        C  0.31815066  0.44706926  0.51194722    -0.09800
C310        C  0.33825534  0.47765078  0.52459996     0.06400
C311        C  0.35412146  0.51074885  0.51456870    -0.03500
C312        C  0.35140655  0.51238977  0.49254171    -0.08000
C313        C  0.33333929  0.48169845  0.47963733     0.05500
C314        C  0.31560770  0.44874983  0.48982138    -0.03000
Br315      Br  0.28782441  0.40504189  0.47477576    -0.02700
H316        H  0.30475711  0.42122242  0.51921124     0.09500
H317        H  0.36429148  0.03849499  0.48563096     0.07500
Br318      Br  0.38149827  0.55492490  0.52936952    -0.03100
C319        C  0.41985310  0.07320366  0.35448858    -0.09800
C320        C  0.39076558  0.03821714  0.35463658     0.06400
C321        C  0.37912320  0.02052208  0.33494566    -0.03500
C322        C  0.39547930  0.03813904  0.31599436    -0.08000
C323        C  0.42387952  0.07331442  0.31598672     0.05500
C324        C  0.43622185  0.09062182  0.33558841    -0.03000
Br325      Br  0.47323584  0.13899835  0.33743475    -0.02700
H326        H  0.42985929  0.08766294  0.36924663     0.09500
H327        H  0.38558948  0.02429088  0.30103184     0.07500
Br328      Br  0.33981350  0.47316879  0.33245623    -0.03100
C329        C  0.51235216  0.15327015  0.15945606    -0.09800
C330        C  0.48289198  0.14741561  0.14724248     0.06400
C331        C  0.95160560  0.13994335  0.15796113    -0.03500
C332        C  0.94997674  0.13681242  0.18012706    -0.08000
C333        C  0.47902557  0.14096665  0.19227708     0.05500
C334        C  0.51078953  0.15026044  0.18160944    -0.03000
Br335      Br  0.55248066  0.15733605  0.19584073    -0.02700
H336        H  0.53684151  0.15924604  0.15169630     0.09500
H337        H  0.92544042  0.13056844  0.18792805     0.07500
Br338      Br  0.91076628  0.13470264  0.14358554    -0.03100
C339        C  0.13416899  0.49000997  0.49239803    -0.09800
C340        C  0.10017693  0.47397558  0.48384352     0.06400
C341        C  0.07108336  0.45276156  0.49709142    -0.03500
C342        C  0.07623678  0.44863859  0.51855894    -0.08000
C343        C  0.11011788  0.46551109  0.52732238     0.05500
C344        C  0.13930351  0.48589813  0.51391557    -0.03000
Br345      Br  0.18680003  0.00869308  0.52430762    -0.02700
H346        H  0.15680742  0.50506389  0.48222929     0.09500
H347        H  0.05349396  0.43400353  0.52870981     0.07500
Br348      Br  0.02341521  0.43064240  0.48693238    -0.03100
C349        C  0.21108620  0.01237705  0.42106224    -0.09800
C350        C  0.18373856  0.48156819  0.41145147     0.06400
C351        C  0.19285110  0.45950005  0.40003686    -0.03500
C352        C  0.22821572  0.46777992  0.39906799    -0.08000
C353        C  0.25571484  0.99798610  0.40947378     0.05500
C354        C  0.24647221  0.02066554  0.42029758    -0.03000
Br355      Br  0.28006502  0.06230752  0.43537464    -0.02700
H356        H  0.20463000  0.02994516  0.42972332     0.09500
H357        H  0.23423567  0.44999188  0.39031129     0.07500
Br358      Br  0.15842503  0.41885495  0.38457224    -0.03100
C359        C  0.99028436  0.99425260  0.44079832    -0.09800
C360        C  0.99078112  0.46890571  0.42722484     0.06400
C361        C  0.46368657  0.45153290  0.41216574    -0.03500
C362        C  0.43786209  0.46119926  0.41023283    -0.08000
C363        C  0.43816661  0.98807379  0.42331086     0.05500
C364        C  0.46433308  0.00416746  0.43903698    -0.03000
Br365      Br  0.96335395  0.03575004  0.45985015    -0.02700
H366        H  0.01098500  0.00770398  0.45246967     0.09500
H367        H  0.41796215  0.44823380  0.39805557     0.07500
Br368      Br  0.46262972  0.41711039  0.39251466    -0.03100
C369        C  0.44743219  0.25536036  0.25335005    -0.09800
C370        C  0.48074814  0.28339663  0.25957390     0.06400
C371        C  0.00586981  0.27508571  0.26686214    -0.03500
C372        C  0.99729365  0.23968063  0.26826032    -0.08000
C373        C  0.46412283  0.21150481  0.26191264     0.05500
C374        C  0.43907878  0.21993705  0.25416439    -0.03000
Br375      Br  0.39353743  0.18520577  0.24366133    -0.02700
H376        H  0.42764103  0.26105641  0.24744731     0.09500
H377        H  0.01744792  0.23444653  0.27403472     0.07500
Br378      Br  0.05224063  0.31060599  0.27546142    -0.03100
C379        C  0.44759690  0.49903808  0.26198527    -0.09800
C380        C  0.46604060  0.02579678  0.24733334     0.06400
C381        C  0.99333921  0.02582415  0.23520458    -0.03500
C382        C  0.00146739  0.99886994  0.23782717    -0.08000
C383        C  0.48308120  0.47209571  0.25271778     0.05500
C384        C  0.45613609  0.47270141  0.26506311    -0.03000
Br385      Br  0.43125713  0.43984993  0.28756086    -0.02700
H386        H  0.42779503  0.49980547  0.27204733     0.09500
H387        H  0.02164180  0.99845142  0.22798448     0.07500
Br388      Br  0.01968769  0.06178372  0.21469314    -0.03100
C389        C  0.01411267  0.43903405  0.32727968    -0.09800
C390        C  0.01649420  0.41021729  0.31899222     0.06400
C391        C  0.03802863  0.39982320  0.32945378    -0.03500
C392        C  0.05642900  0.41762280  0.34771305    -0.08000
C393        C  0.05390574  0.44606920  0.35638775     0.05500
C394        C  0.03241434  0.45682261  0.34593457    -0.03000
Br395      Br  0.02604324  0.49437271  0.35686063    -0.02700
H396        H  0.99875643  0.44829644  0.31894016     0.09500
H397        H  0.07216227  0.40835924  0.35562447     0.07500
Br398      Br  0.54301458  0.36090237  0.31947779    -0.03100
C399        C  0.45597463  0.38449695  0.15922283    -0.09800
C400        C  0.47980402  0.37910420  0.14684232     0.06400
C401        C  0.00306405  0.37069405  0.15702833    -0.03500
C402        C  0.00158532  0.36711122  0.17918220    -0.08000
C403        C  0.47721952  0.37184677  0.19149755     0.05500
C404        C  0.45474538  0.38132687  0.18129966    -0.03000
Br405      Br  0.42430788  0.39354100  0.19671538    -0.02700
H406        H  0.43820695  0.39151714  0.15161867     0.09500
H407        H  0.01976445  0.36075876  0.18687572     0.07500
Br408      Br  0.03586960  0.36220172  0.14140484    -0.03100
O409        O  0.02934762  0.90539871  0.28341399    -0.73600
O410        O  0.01118746  0.88843597  0.22235153    -0.74500
O411        O  0.01758094  0.94241219  0.25076844    -0.63200
O412        O  0.01626487  0.84752519  0.25540844    -0.71600
O413        O  0.45920320  0.82288705  0.26241506    -0.71100
O414        O  0.45998156  0.91163427  0.25640100    -0.62400
O415        O  0.45336715  0.86014317  0.22726990    -0.74900
O416        O  0.47232142  0.88024155  0.29129249    -0.73700
Cu417      Cu  0.02069044  0.89678769  0.25280796     1.04600
Cu418      Cu  0.45925527  0.86754189  0.25960645     1.04300
C419        C  0.00502165  0.89770845  0.29693469     0.92600
C420        C  0.48030178  0.87291850  0.21483940     0.91800
C421        C  0.98768691  0.94093462  0.25327949     0.83900
C422        C  0.98627089  0.81991241  0.25928089     0.90200
O423        O  0.14288254  0.00153111  0.41157418    -0.73600
O424        O  0.05200316  0.99617218  0.42352481    -0.74500
O425        O  0.10744720  0.00201480  0.44957343    -0.63200
O426        O  0.08290683  0.98890371  0.38543990    -0.71600
O427        O  0.06183209  0.93174422  0.39064787    -0.71100
O428        O  0.07903554  0.94352741  0.45167308    -0.62400
O429        O  0.02397084  0.93765691  0.42521687    -0.74900
O430        O  0.12041506  0.94407813  0.41651098    -0.73700
Cu431      Cu  0.09736228  0.99926779  0.41734631     1.04600
Cu432      Cu  0.07055030  0.93726944  0.42110749     1.04300
C433        C  0.14711391  0.97488700  0.41294907     0.92600
C434        C  0.02362651  0.96694016  0.42561551     0.91800
C435        C  0.09552599  0.97361066  0.46058116     0.83900
C436        C  0.06732256  0.95684070  0.37837944     0.90200
O437        O  0.48550006  0.67191377  0.26610991    -0.73600
O438        O  0.48943998  0.58586730  0.25405082    -0.74500
O439        O  0.49832402  0.64314052  0.22894203    -0.63200
O440        O  0.47045584  0.61034094  0.29092357    -0.71600
O441        O  0.41466224  0.58547887  0.28089121    -0.71100
O442        O  0.44149244  0.61314431  0.22135437    -0.62400
O443        O  0.43230906  0.55554485  0.24656908    -0.74900
O444        O  0.43001104  0.64731984  0.25590578    -0.73700
Cu445      Cu  0.48786457  0.62888585  0.26043367     1.04600
Cu446      Cu  0.42761679  0.59950059  0.25096286     1.04300
C447        C  0.45889445  0.67488354  0.26159033     0.92600
C448        C  0.46221622  0.55718453  0.24878822     0.91800
C449        C  0.47319404  0.63236628  0.21532684     0.83900
C450        C  0.43735117  0.59114571  0.29513076     0.90200
O451        O  0.29376476  0.97441258  0.40627159    -0.73600
O452        O  0.37952991  0.96908559  0.41449629    -0.74500
O453        O  0.32520535  0.96117424  0.44240420    -0.63200
O454        O  0.35363022  0.48947643  0.37923854    -0.71600
O455        O  0.38066758  0.54475057  0.39071310    -0.71100
O456        O  0.35389026  0.51807157  0.44968826    -0.62400
O457        O  0.41037658  0.52480235  0.42434687    -0.74900
O458        O  0.31954828  0.53044555  0.41590653    -0.73700
Cu459      Cu  0.33688901  0.97162726  0.41019858     1.04600
Cu460      Cu  0.36698404  0.53147265  0.42036257     1.04300
C461        C  0.29150026  0.50176165  0.41034353     0.92600
C462        C  0.40797794  0.49457432  0.42076290     0.91800
C463        C  0.33664276  0.48645451  0.45603372     0.83900
C464        C  0.37356908  0.52278048  0.37561124     0.90200
O465        O  0.12872384  0.52703349  0.61689274    -0.73600
O466        O  0.13145185  0.50160506  0.55739311    -0.74500
O467        O  0.08383528  0.51363888  0.58145937    -0.63200
O468        O  0.17388030  0.50875918  0.59283084    -0.71600
O469        O  0.13896481  0.95206800  0.60009015    -0.71100
O470        O  0.05274321  0.95724737  0.59050648    -0.62400
O471        O  0.09641452  0.94448728  0.56363101    -0.74900
O472        O  0.09598471  0.47145861  0.62674300    -0.73700
Cu473      Cu  0.13078786  0.51470611  0.58704169     1.04600
Cu474      Cu  0.09513596  0.95427994  0.59568650     1.04300
C475        C  0.11091488  0.50471833  0.63115237     0.92600
C476        C  0.11347659  0.47009803  0.55062238     0.91800
C477        C  0.05400526  0.48505710  0.58376874     0.83900
C478        C  0.16982134  0.47823610  0.59718167     0.90200
O479        O  0.13728687  0.59130351  0.78549788    -0.73600
O480        O  0.13111600  0.56513202  0.72503833    -0.74500
O481        O  0.17892862  0.62724136  0.74964846    -0.63200
O482        O  0.08772189  0.53331211  0.76039195    -0.71600
O483        O  0.05849948  0.56206654  0.75562247    -0.71100
O484        O  0.14558717  0.65065698  0.74256035    -0.62400
O485        O  0.09795835  0.58886415  0.71776487    -0.74900
O486        O  0.10781736  0.61963529  0.78052560    -0.73700
Cu487      Cu  0.13504896  0.57851179  0.75530885     1.04600
Cu488      Cu  0.10155223  0.60638701  0.74882322     1.04300
C489        C  0.12374817  0.60896394  0.79291440     0.92600
C490        C  0.11218348  0.57044183  0.71208506     0.91800
C491        C  0.17599440  0.65425497  0.74494337     0.83900
C492        C  0.05863291  0.53372428  0.75955678     0.90200
O493        O  0.41094327  0.99580781  0.58498451    -0.73600
O494        O  0.31885893  0.98553750  0.59948101    -0.74500
O495        O  0.37046346  0.97672111  0.62242175    -0.63200
O496        O  0.35769507  0.99906246  0.56103117    -0.71600
O497        O  0.33347549  0.94202309  0.55394664    -0.71100
O498        O  0.34326507  0.92008367  0.61306330    -0.62400
O499        O  0.29054550  0.92889365  0.59046586    -0.74900
O500        O  0.38773744  0.93902748  0.57755866    -0.73700
Cu501      Cu  0.36526634  0.99121551  0.59226876     1.04600
Cu502      Cu  0.33770823  0.93047735  0.58347326     1.04300
C503        C  0.41501040  0.96988365  0.58010024     0.92600
C504        C  0.29006808  0.95677614  0.59684801     0.91800
C505        C  0.35974982  0.94421524  0.62681317     0.83900
C506        C  0.34346838  0.97318994  0.54770736     0.90200
O507        O  0.33987861  0.86218904  0.78153346    -0.73600
O508        O  0.33986522  0.88679382  0.72258689    -0.74500
O509        O  0.29405596  0.82647944  0.74781866    -0.63200
O510        O  0.38898517  0.91900011  0.75602323    -0.71600
O511        O  0.41476069  0.88800320  0.74757819    -0.71100
O512        O  0.32479512  0.80153775  0.73746784    -0.62400
O513        O  0.37101448  0.86272338  0.71165325    -0.74900
O514        O  0.36774842  0.83266863  0.77411466    -0.73700
Cu515      Cu  0.33958121  0.87446913  0.75218836     1.04600
Cu516      Cu  0.37034849  0.84499062  0.74229237     1.04300
C517        C  0.35337051  0.84405682  0.78753946     0.92600
C518        C  0.35693867  0.88192764  0.70798587     0.91800
C519        C  0.29522170  0.79876223  0.74201890     0.83900
C520        C  0.41707563  0.91715649  0.75275062     0.90200
O521        O  0.30683288  0.83441420  0.92673142    -0.73600
O522        O  0.39682372  0.92018138  0.91497726    -0.74500
O523        O  0.34247779  0.87047372  0.88887550    -0.63200
O524        O  0.36663924  0.88285756  0.95276507    -0.71600
O525        O  0.38915872  0.84793009  0.94762042    -0.71100
O526        O  0.37003220  0.83952448  0.88679481    -0.62400
O527        O  0.42514321  0.89008249  0.91247656    -0.74900
O528        O  0.32976591  0.79965620  0.92231219    -0.73700
Cu529      Cu  0.35196653  0.87784361  0.92106792     1.04600
Cu530      Cu  0.37917425  0.84294500  0.91722582     1.04300
C531        C  0.30292678  0.80360423  0.92569235     0.92600
C532        C  0.42510251  0.91950947  0.91204395     0.91800
C533        C  0.35481725  0.85411931  0.87787389     0.83900
C534        C  0.38400258  0.86836698  0.95966255     0.90200
O535        O  0.44468660  0.86369590  0.11660601    -0.73600
O536        O  0.42233828  0.86479658  0.05668210    -0.74500
O537        O  0.43666504  0.81821018  0.08206364    -0.63200
O538        O  0.43742398  0.91249075  0.09148188    -0.71600
O539        O  0.49399907  0.93861981  0.08342073    -0.71100
O540        O  0.49337824  0.85036284  0.07428130    -0.62400
O541        O  0.47867664  0.89430741  0.04750828    -0.74900
O542        O  0.50227006  0.89293073  0.11060489    -0.73700
Cu543      Cu  0.43315512  0.86354062  0.08682591     1.04600
Cu544      Cu  0.49395484  0.89488996  0.07856746     1.04300
C545        C  0.47600746  0.87850744  0.12351240     0.92600
C546        C  0.44589404  0.88039812  0.04261499     0.91800
C547        C  0.46643022  0.82040430  0.07753713     0.83900
C548        C  0.46748475  0.94082485  0.08932650     0.90200
O549        O  0.07191679  0.56507789  0.92458470    -0.73600
O550        O  0.15643936  0.65667532  0.93438015    -0.74500
O551        O  0.09454427  0.61282735  0.95947313    -0.63200
O552        O  0.12926700  0.61041781  0.89870918    -0.71600
O553        O  0.09981008  0.63655801  0.88825442    -0.71100
O554        O  0.06841901  0.64055901  0.94642087    -0.62400
O555        O  0.13117892  0.68561453  0.92188908    -0.74900
O556        O  0.04085738  0.58881336  0.91324474    -0.73700
Cu557      Cu  0.11405861  0.61047050  0.92977597     1.04600
Cu558      Cu  0.08412933  0.63895906  0.91712344     1.04300
C559        C  0.04311394  0.56135565  0.91784755     0.92600
C560        C  0.15873846  0.68562975  0.92887633     0.91800
C561        C  0.07485384  0.62668820  0.96216463     0.83900
C562        C  0.11884437  0.62301708  0.88384651     0.90200
O563        O  0.46765095  0.67284437  0.07361565    -0.73600
O564        O  0.46728958  0.58480738  0.08452114    -0.74500
O565        O  0.45980607  0.63264547  0.11092716    -0.63200
O566        O  0.48177294  0.62596303  0.04758486    -0.71600
O567        O  0.03826005  0.65683709  0.05619841    -0.71100
O568        O  0.01736675  0.66362775  0.11624149    -0.62400
O569        O  0.02422621  0.61292371  0.09202190    -0.74900
O570        O  0.02442540  0.70556347  0.08066567    -0.73700
Cu571      Cu  0.46717965  0.62831153  0.07877677     1.04600
Cu572      Cu  0.02810528  0.66103595  0.08635319     1.04300
C573        C  0.99463046  0.70315392  0.07634619     0.92600
C574        C  0.99452741  0.58403781  0.09031360     0.91800
C575        C  0.48624093  0.64829877  0.12363467     0.83900
C576        C  0.01447499  0.63904194  0.04258111     0.90200
C577        C  0.05365259  0.62394635  0.02171005    -0.09800
C578        C  0.02652462  0.63243769  0.02169259     0.06400
C579        C  0.01445729  0.63711444  0.00206332    -0.03500
C580        C  0.03018858  0.63441473  0.98312643    -0.08000
C581        C  0.05812449  0.62686159  0.98306322     0.05500
C582        C  0.06920500  0.62085019  0.00281440    -0.03000
Br583      Br  0.10631331  0.60989961  0.00546894    -0.02700
H584        H  0.06324293  0.62009801  0.03669900     0.09500
H585        H  0.02066031  0.63884101  0.96830215     0.07500
Br586      Br  0.47876088  0.65006682  0.00029759    -0.03100
C587        C  0.45535020  0.72844995  0.06966644    -0.09800
C588        C  0.48912892  0.73435479  0.07541572     0.06400
C589        C  0.01458993  0.76874022  0.08202242    -0.03500
C590        C  0.50604446  0.79564925  0.08257336    -0.08000
C591        C  0.47226305  0.78957564  0.07701265     0.05500
C592        C  0.44673127  0.75536443  0.07059026    -0.03000
Br593      Br  0.40016771  0.74396757  0.06227675    -0.02700
H594        H  0.43496945  0.70240668  0.06462861     0.09500
H595        H  0.02609730  0.82170770  0.08786504     0.07500
Br596      Br  0.06110481  0.78117151  0.09125871    -0.03100
C597        C  0.00865556  0.00551237  0.09044181    -0.09800
C598        C  0.47392588  0.97731017  0.09315128     0.06400
C599        C  0.44762556  0.98547080  0.09870497    -0.03500
C600        C  0.45557540  0.52071400  0.09903741    -0.08000
C601        C  0.48987637  0.54864283  0.09438924     0.05500
C602        C  0.01687086  0.54070793  0.09129614    -0.03000
Br603      Br  0.06492789  0.57600708  0.08575146    -0.02700
H604        H  0.03000898  0.00048324  0.08703776     0.09500
H605        H  0.43455105  0.52632486  0.10231195     0.07500
Br606      Br  0.40005056  0.95024252  0.10539261    -0.03100
C607        C  0.22209501  0.71530743  0.93980925    -0.09800
C608        C  0.19463528  0.71793699  0.92978026     0.06400
C609        C  0.20359217  0.74963871  0.91913301    -0.03500
C610        C  0.23892665  0.77671568  0.91811115    -0.08000
C611        C  0.26628351  0.77332914  0.92739089     0.05500
C612        C  0.25741157  0.74240766  0.93867358    -0.03000
Br613      Br  0.29204304  0.73653260  0.95373654    -0.02700
H614        H  0.21627774  0.69166887  0.94844030     0.09500
H615        H  0.24517006  0.80057797  0.90957574     0.07500
Br616      Br  0.16966329  0.75773715  0.90493210    -0.03100
C617        C  0.48536975  0.96145372  0.92369369    -0.09800
C618        C  0.45763417  0.95398103  0.90996728     0.06400
C619        C  0.45820858  0.98191413  0.89842392    -0.03500
C620        C  0.48609753  0.51665482  0.90109345    -0.08000
C621        C  0.01324477  0.52454170  0.91552123     0.05500
C622        C  0.01247158  0.49622634  0.92699398    -0.03000
Br623      Br  0.04498008  0.50240499  0.94930224    -0.02700
H624        H  0.98439538  0.94052688  0.93331508     0.09500
H625        H  0.48630945  0.53761680  0.89194391     0.07500
Br626      Br  0.42129636  0.97408847  0.87900555    -0.03100
C627        C  0.43230176  0.87406909  0.98279012    -0.09800
C628        C  0.40108987  0.87589715  0.98095259     0.06400
C629        C  0.38720413  0.88287499  0.99936442    -0.03500
C630        C  0.40329897  0.88576575  0.01909327    -0.08000
C631        C  0.43354900  0.88226252  0.02097249     0.05500
C632        C  0.44844970  0.87714326  0.00243165    -0.03000
Br633      Br  0.48866979  0.87071773  0.00306272    -0.02700
H634        H  0.44394007  0.86932516  0.96882777     0.09500
H635        H  0.39151338  0.88991473  0.03319412     0.07500
Br636      Br  0.34514751  0.88609349  0.99887100    -0.03100
C637        C  0.32186612  0.83193418  0.84397491    -0.09800
C638        C  0.35385244  0.85249794  0.85455861     0.06400
C639        C  0.38574345  0.86605992  0.84305084    -0.03500
C640        C  0.38530523  0.85932918  0.82128107    -0.08000
C641        C  0.35337473  0.83940547  0.81055836     0.05500
C642        C  0.32145695  0.82560656  0.82207886    -0.03000
Br643      Br  0.27663533  0.79867313  0.80830132    -0.02700
H644        H  0.29732034  0.82044138  0.85275129     0.09500
H645        H  0.40983887  0.87169201  0.81246649     0.07500
Br646      Br  0.43071150  0.89577899  0.85612889    -0.03100
C647        C  0.35263484  0.94223573  0.66575221    -0.09800
C648        C  0.36517305  0.93311120  0.64785922     0.06400
C649        C  0.37791038  0.90925771  0.64996788    -0.03500
C650        C  0.37552988  0.89304558  0.66956408    -0.08000
C651        C  0.36067425  0.90032490  0.68738452     0.05500
C652        C  0.35037310  0.92650222  0.68534113    -0.03000
Br653      Br  0.33283866  0.94342868  0.70805211    -0.02700
H654        H  0.34308393  0.96069574  0.66428862     0.09500
H655        H  0.38493256  0.87445507  0.67075197     0.07500
Br656      Br  0.39983107  0.89891775  0.62662564    -0.03100
C657        C  0.12475680  0.58856225  0.82940631    -0.09800
C658        C  0.12585651  0.61498435  0.81620403     0.06400
C659        C  0.12971471  0.64602454  0.82563143    -0.03500
C660        C  0.13007258  0.64906996  0.84781682    -0.08000
C661        C  0.12687570  0.62171460  0.86104995     0.05500
C662        C  0.12520100  0.59161711  0.85157261    -0.03000
Br663      Br  0.11998890  0.55235135  0.86782634    -0.02700
H664        H  0.12222946  0.56461558  0.82244613     0.09500
H665        H  0.13186935  0.67268547  0.85481374     0.07500
Br666      Br  0.13582348  0.68541311  0.80911971    -0.03100
C667        C  0.01526478  0.97635514  0.74458259    -0.09800
C668        C  0.02408158  0.50132863  0.76084459     0.06400
C669        C  0.49705034  0.49912687  0.77423224    -0.03500
C670        C  0.46195599  0.47223962  0.77117435    -0.08000
C671        C  0.45322099  0.94782321  0.75466159     0.05500
C672        C  0.48042646  0.95036403  0.74113215    -0.03000
Br673      Br  0.47163811  0.92131074  0.71618082    -0.02700
H674        H  0.03542881  0.97877502  0.73353704     0.09500
H675        H  0.44166656  0.47036275  0.78189393     0.07500
Br676      Br  0.00747425  0.53260753  0.79701784    -0.03100
C677        C  0.20148440  0.71959367  0.74750277    -0.09800
C678        C  0.20689178  0.69082455  0.74328213     0.06400
C679        C  0.24108117  0.69822525  0.73783663    -0.03500
C680        C  0.26863302  0.73340880  0.73685960    -0.08000
C681        C  0.26347891  0.76232529  0.74146824     0.05500
C682        C  0.22907303  0.75479773  0.74677335    -0.03000
Br683      Br  0.21737659  0.79066387  0.75355688    -0.02700
H684        H  0.17549343  0.71473083  0.75187234     0.09500
H685        H  0.29458461  0.73794198  0.73272831     0.07500
Br686      Br  0.25192515  0.66181153  0.73095299    -0.03100
C687        C  0.45705494  0.94868700  0.57122268    -0.09800
C688        C  0.45172012  0.97608305  0.57851516     0.06400
C689        C  0.48191662  0.50836154  0.58351875    -0.03500
C690        C  0.01531096  0.51153538  0.58469838    -0.08000
C691        C  0.01985763  0.48302781  0.57926048     0.05500
C692        C  0.49051658  0.95198106  0.57167053    -0.03000
Br693      Br  0.99347508  0.91129998  0.56198849    -0.02700
H694        H  0.43494464  0.92412829  0.56561176     0.09500
H695        H  0.03761017  0.53589258  0.59041272     0.07500
Br696      Br  0.48093720  0.55008364  0.59256998    -0.03100
C697        C  0.22701823  0.48906850  0.61275293    -0.09800
C698        C  0.20004351  0.47171140  0.59781284     0.06400
C699        C  0.20083877  0.94621927  0.58435089    -0.03500
C700        C  0.22905373  0.93961445  0.58527584    -0.08000
C701        C  0.25677781  0.95790661  0.59968587     0.05500
C702        C  0.25489466  0.48191869  0.61396876    -0.03000
Br703      Br  0.28883104  0.50512013  0.63622186    -0.02700
H704        H  0.22611384  0.50783383  0.62376865     0.09500
H705        H  0.23015383  0.92136644  0.57392044     0.07500
Br706      Br  0.16528236  0.92112570  0.56324304    -0.03100
C707        C  0.11840598  0.55600052  0.65315923    -0.09800
C708        C  0.10748191  0.51948724  0.65213084     0.06400
C709        C  0.09393665  0.49953561  0.67085470    -0.03500
C710        C  0.09404937  0.51657424  0.68997657    -0.08000
C711        C  0.10639550  0.55319387  0.69092482     0.05500
C712        C  0.11784953  0.57270342  0.67215957    -0.03000
Br713      Br  0.13581535  0.62274702  0.67202557    -0.02700
H714        H  0.12814391  0.57220002  0.63910044     0.09500
H715        H  0.08516086  0.50120123  0.70440189     0.07500
Br716      Br  0.07598931  0.44952558  0.67182591    -0.03100
C717        C  0.31880406  0.94711482  0.51203555    -0.09800
C718        C  0.33844416  0.97774943  0.52472973     0.06400
C719        C  0.35386171  0.01085981  0.51472474    -0.03500
C720        C  0.35116700  0.01249388  0.49269228    -0.08000
C721        C  0.33357713  0.98179163  0.47975199     0.05500
C722        C  0.31628968  0.94879135  0.48990549    -0.03000
Br723      Br  0.28921644  0.90499196  0.47481345    -0.02700
H724        H  0.30576413  0.92123957  0.51926913     0.09500
H725        H  0.36490164  0.53836631  0.48545594     0.07500
Br726      Br  0.38055691  0.05510470  0.52957339    -0.03100
C727        C  0.41976163  0.57296286  0.35444209    -0.09800
C728        C  0.39059237  0.53802091  0.35455927     0.06400
C729        C  0.37889289  0.52040523  0.33485257    -0.03500
C730        C  0.39528273  0.53805384  0.31591668    -0.08000
C731        C  0.42375883  0.57319173  0.31593842     0.05500
C732        C  0.43615195  0.59042097  0.33555605    -0.03000
Br733      Br  0.47325763  0.63875263  0.33745035    -0.02700
H734        H  0.42980861  0.58736214  0.36921435     0.09500
H735        H  0.38535110  0.52426376  0.30094227     0.07500
Br736      Br  0.34018120  0.97320039  0.33258867    -0.03100
C737        C  0.51221695  0.65319972  0.15943448    -0.09800
C738        C  0.48276800  0.64742214  0.14723667     0.06400
C739        C  0.95166787  0.63997883  0.15802828    -0.03500
C740        C  0.95005203  0.63684280  0.18019403    -0.08000
C741        C  0.47894735  0.64099560  0.19226865     0.05500
C742        C  0.51067822  0.65020690  0.18158752    -0.03000
Br743      Br  0.55234541  0.65718199  0.19580145    -0.02700
H744        H  0.53667488  0.65909821  0.15166223     0.09500
H745        H  0.92552007  0.63059962  0.18800045     0.07500
Br746      Br  0.91082547  0.63475955  0.14366804    -0.03100
C747        C  0.13417789  0.99004993  0.49238197    -0.09800
C748        C  0.10020870  0.97379336  0.48378334     0.06400
C749        C  0.07112289  0.95244199  0.49700444    -0.03500
C750        C  0.07625920  0.94840930  0.51848903    -0.08000
C751        C  0.11010979  0.96550863  0.52729599     0.05500
C752        C  0.13929390  0.98602118  0.51391467    -0.03000
Br753      Br  0.18682841  0.50828961  0.52425747    -0.02700
H754        H  0.15681941  0.00522065  0.48223747     0.09500
H755        H  0.05351172  0.93365307  0.52861442     0.07500
Br756      Br  0.02346895  0.93001674  0.48679136    -0.03100
C757        C  0.21094769  0.51239430  0.42107982    -0.09800
C758        C  0.18391436  0.98152510  0.41143341     0.06400
C759        C  0.19307506  0.95944550  0.40007273    -0.03500
C760        C  0.22844894  0.96774754  0.39915361    -0.08000
C761        C  0.25552077  0.49798637  0.40938982     0.05500
C762        C  0.24632633  0.52066083  0.42026538    -0.03000
Br763      Br  0.27998045  0.56225907  0.43535084    -0.02700
H764        H  0.20452737  0.52995757  0.42977754     0.09500
H765        H  0.23450674  0.94995465  0.39043423     0.07500
Br766      Br  0.15871050  0.91875238  0.38461545    -0.03100
C767        C  0.99024981  0.49460294  0.44071310    -0.09800
C768        C  0.99090010  0.96873169  0.42718775     0.06400
C769        C  0.46407726  0.95191623  0.41223667    -0.03500
C770        C  0.43818868  0.96150041  0.41035265    -0.08000
C771        C  0.43767227  0.48755776  0.42331558     0.05500
C772        C  0.46353651  0.50327983  0.43923958    -0.03000
Br773      Br  0.96351604  0.53641260  0.45954880    -0.02700
H774        H  0.01104168  0.50823068  0.45230898     0.09500
H775        H  0.41810804  0.94829980  0.39830117     0.07500
Br776      Br  0.46279809  0.91723598  0.39271240    -0.03100
C777        C  0.44732222  0.75527988  0.25323349    -0.09800
C778        C  0.48058154  0.78330921  0.25954469     0.06400
C779        C  0.00592567  0.77514052  0.26679441    -0.03500
C780        C  0.99735242  0.73973736  0.26821118    -0.08000
C781        C  0.46397353  0.71142424  0.26188355     0.05500
C782        C  0.43898668  0.71986054  0.25403664    -0.03000
Br783      Br  0.39357958  0.68514746  0.24335001    -0.02700
H784        H  0.42757336  0.76098200  0.24726163     0.09500
H785        H  0.01751509  0.73451463  0.27398403     0.07500
Br786      Br  0.05231782  0.81068266  0.27534697    -0.03100
C787        C  0.44759935  0.99906147  0.26202706    -0.09800
C788        C  0.46605117  0.52579335  0.24730546     0.06400
C789        C  0.99346761  0.52589453  0.23535492    -0.03500
C790        C  0.00158680  0.49893357  0.23797507    -0.08000
C791        C  0.48300967  0.97205756  0.25272381     0.05500
C792        C  0.45611084  0.97270346  0.26509350    -0.03000
Br793      Br  0.43126898  0.93987631  0.28760744    -0.02700
H794        H  0.42783127  0.99985988  0.27210619     0.09500
H795        H  0.02179759  0.49854300  0.22815496     0.07500
Br796      Br  0.01989951  0.56191351  0.21489116    -0.03100
C797        C  0.01449800  0.93932525  0.32713482    -0.09800
C798        C  0.01660155  0.91032484  0.31889793     0.06400
C799        C  0.03791967  0.89970512  0.32939823    -0.03500
C800        C  0.05635359  0.91744220  0.34766209    -0.08000
C801        C  0.05407714  0.94605139  0.35630300     0.05500
C802        C  0.03283316  0.95705641  0.34579356    -0.03000
Br803      Br  0.02684451  0.99488667  0.35663766    -0.02700
H804        H  0.99932836  0.94876540  0.31875479     0.09500
H805        H  0.07191997  0.90800710  0.35559973     0.07500
Br806      Br  0.54236960  0.86045665  0.31956890    -0.03100
C807        C  0.45605610  0.88459165  0.15918305    -0.09800
C808        C  0.47984348  0.87912293  0.14681085     0.06400
C809        C  0.00289340  0.87053606  0.15698759    -0.03500
C810        C  0.00139816  0.86693357  0.17913840    -0.08000
C811        C  0.47721077  0.87186229  0.19146762     0.05500
C812        C  0.45480150  0.88141682  0.18125938    -0.03000
Br813      Br  0.42441767  0.89371856  0.19666114    -0.02700
H814        H  0.43833568  0.89166838  0.15157197     0.09500
H815        H  0.01955229  0.86054566  0.18683146     0.07500
Br816      Br  0.03566523  0.86199180  0.14136481    -0.03100
O817        O  0.52946009  0.40540027  0.28346139    -0.73600
O818        O  0.51132093  0.38852944  0.22238974    -0.74500
O819        O  0.51769174  0.44246432  0.25084196    -0.63200
O820        O  0.51638389  0.34756611  0.25542499    -0.71600
O821        O  0.95925673  0.32292456  0.26247954    -0.71100
O822        O  0.96004615  0.41166335  0.25643384    -0.62400
O823        O  0.95340950  0.36015261  0.22731871    -0.74900
O824        O  0.97241385  0.38030902  0.29133167    -0.73700
Cu825      Cu  0.52081058  0.39683588  0.25285181     1.04600
Cu826      Cu  0.95931969  0.36757799  0.25965306     1.04300
C827        C  0.50513252  0.39770264  0.29698219     0.92600
C828        C  0.98033727  0.37292809  0.21488252     0.91800
C829        C  0.48779152  0.44097635  0.25335152     0.83900
C830        C  0.48638787  0.31995342  0.25929526     0.90200
O831        O  0.64258550  0.50134168  0.41172378    -0.73600
O832        O  0.55171815  0.49602302  0.42367327    -0.74500
O833        O  0.60714022  0.50175965  0.44972425    -0.63200
O834        O  0.58267827  0.48882953  0.38558416    -0.71600
O835        O  0.56155239  0.43164626  0.39074133    -0.71100
O836        O  0.57866335  0.44326474  0.45178365    -0.62400
O837        O  0.52364841  0.43750304  0.42530798    -0.74900
O838        O  0.62007823  0.44387287  0.41661496    -0.73700
Cu839      Cu  0.59707895  0.49910065  0.41749912     1.04600
Cu840      Cu  0.57021722  0.43708807  0.42120778     1.04300
C841        C  0.64679216  0.47467910  0.41306669     0.92600
C842        C  0.52332163  0.46679528  0.42572420     0.91800
C843        C  0.59520592  0.47333039  0.46070841     0.83900
C844        C  0.56711102  0.45678630  0.37849241     0.90200
O845        O  0.98554063  0.17191822  0.26609965    -0.73600
O846        O  0.98942719  0.08585220  0.25399234    -0.74500
O847        O  0.99830626  0.14313522  0.22890898    -0.63200
O848        O  0.97052123  0.11033903  0.29089141    -0.71600
O849        O  0.91471154  0.08548992  0.28089547    -0.71100
O850        O  0.94146555  0.11317386  0.22134633    -0.62400
O851        O  0.93228440  0.05556011  0.24653704    -0.74900
O852        O  0.93003475  0.14734023  0.25593307    -0.73700
Cu853      Cu  0.98788375  0.12888181  0.26039868     1.04600
Cu854      Cu  0.92762196  0.09952159  0.25096105     1.04300
C855        C  0.95892632  0.17489477  0.26161560     0.92600
C856        C  0.96218565  0.05718101  0.24873440     0.91800
C857        C  0.97316429  0.13236628  0.21530360     0.83900
C858        C  0.93742397  0.09115410  0.29511953     0.90200
O859        O  0.79342469  0.47418096  0.40618940    -0.73600
O860        O  0.87916525  0.46879176  0.41441374    -0.74500
O861        O  0.82485144  0.46090834  0.44232451    -0.63200
O862        O  0.85390730  0.98956555  0.37928728    -0.71600
O863        O  0.88095686  0.04484822  0.39074979    -0.71100
O864        O  0.85416730  0.01816042  0.44974131    -0.62400
O865        O  0.91066828  0.02491718  0.42438768    -0.74900
O866        O  0.81983717  0.03054753  0.41593883    -0.73700
Cu867      Cu  0.83654293  0.47137146  0.41011383     1.04600
Cu868      Cu  0.86727207  0.03157506  0.42040619     1.04300
C869        C  0.79179548  0.00186788  0.41036263     0.92600
C870        C  0.90826901  0.99469124  0.42079761     0.91800
C871        C  0.83689233  0.98653801  0.45608039     0.83900
C872        C  0.87383834  0.02286643  0.37565096     0.90200
O873        O  0.62872474  0.02708910  0.61694454    -0.73600
O874        O  0.63146004  0.00199454  0.55739159    -0.74500
O875        O  0.58386175  0.01391682  0.58157316    -0.63200
O876        O  0.67385789  0.00894601  0.59280702    -0.71600
O877        O  0.63899940  0.45192707  0.60017690    -0.71100
O878        O  0.55280402  0.45714432  0.59061105    -0.62400
O879        O  0.59633422  0.44418295  0.56374621    -0.74900
O880        O  0.59583176  0.97147450  0.62668595    -0.73700
Cu881      Cu  0.63078764  0.01492774  0.58707560     1.04600
Cu882      Cu  0.59518502  0.45416469  0.59578336     1.04300
C883        C  0.61081841  0.00471938  0.63115491     0.92600
C884        C  0.61357856  0.97051566  0.55056007     0.91800
C885        C  0.55402443  0.98532216  0.58380730     0.83900
C886        C  0.66978743  0.97841555  0.59714094     0.90200
O887        O  0.63736223  0.09126419  0.78550315    -0.73600
O888        O  0.63108414  0.06504289  0.72505107    -0.74500
O889        O  0.67898381  0.12714598  0.74963728    -0.63200
O890        O  0.58772680  0.03328597  0.76042224    -0.71600
O891        O  0.55854596  0.06208265  0.75565573    -0.71100
O892        O  0.64567333  0.15060566  0.74257202    -0.62400
O893        O  0.59797462  0.08883669  0.71779483    -0.74900
O894        O  0.60791724  0.11962430  0.78054353    -0.73700
Cu895      Cu  0.63507399  0.07844712  0.75531746     1.04600
Cu896      Cu  0.60161755  0.10637121  0.74884677     1.04300
C897        C  0.62384421  0.10894013  0.79292523     0.92600
C898        C  0.61215353  0.07037572  0.71210908     0.91800
C899        C  0.67607153  0.15417448  0.74493946     0.83900
C900        C  0.55865250  0.03372859  0.75959507     0.90200
O901        O  0.91095663  0.49554504  0.58484968    -0.73600
O902        O  0.81887708  0.48528906  0.59939777    -0.74500
O903        O  0.87046878  0.47639406  0.62229748    -0.63200
O904        O  0.85767874  0.49885226  0.56092833    -0.71600
O905        O  0.83333271  0.44180645  0.55382731    -0.71100
O906        O  0.84332870  0.41978663  0.61288280    -0.62400
O907        O  0.79053015  0.42863925  0.59040162    -0.74900
O908        O  0.88770088  0.43881506  0.57728276    -0.73700
Cu909      Cu  0.86527535  0.49095383  0.59216036     1.04600
Cu910      Cu  0.83767923  0.43023397  0.58331700     1.04300
C911        C  0.91500045  0.46966142  0.57981189     0.92600
C912        C  0.79007351  0.45653004  0.59679168     0.91800
C913        C  0.85977838  0.44388137  0.62665862     0.83900
C914        C  0.84336113  0.47298556  0.54760339     0.90200
O915        O  0.83985546  0.36221071  0.78147236    -0.73600
O916        O  0.83990534  0.38663764  0.72247080    -0.74500
O917        O  0.79411324  0.32638548  0.74774008    -0.63200
O918        O  0.88896212  0.41897487  0.75593293    -0.71600
O919        O  0.91480900  0.38801429  0.74755832    -0.71100
O920        O  0.82490146  0.30144664  0.73748624    -0.62400
O921        O  0.87110836  0.36257820  0.71161885    -0.74900
O922        O  0.86780533  0.33274088  0.77414231    -0.73700
Cu923      Cu  0.83959226  0.37440322  0.75209877     1.04600
Cu924      Cu  0.87042730  0.34495143  0.74229391     1.04300
C925        C  0.85338165  0.34413597  0.78753066     0.92600
C926        C  0.85701958  0.38175591  0.70790164     0.91800
C927        C  0.79531017  0.29866503  0.74199107     0.83900
C928        C  0.91707549  0.41716055  0.75269500     0.90200
O929        O  0.80678905  0.33441485  0.92674583    -0.73600
O930        O  0.89675961  0.42022326  0.91503474    -0.74500
O931        O  0.84244502  0.37053650  0.88890423    -0.63200
O932        O  0.86656202  0.38283563  0.95280592    -0.71600
O933        O  0.88912876  0.34795379  0.94764085    -0.71100
O934        O  0.87001803  0.33960779  0.88680641    -0.62400
O935        O  0.92510625  0.39015358  0.91250814    -0.74900
O936        O  0.82975463  0.29968614  0.92231728    -0.73700
Cu937      Cu  0.85191178  0.37786332  0.92110381     1.04600
Cu938      Cu  0.87915236  0.34299785  0.91724230     1.04300
C939        C  0.80290394  0.30361428  0.92569885     0.92600
C940        C  0.92504659  0.41957159  0.91209159     0.91800
C941        C  0.85480015  0.35420631  0.87789197     0.83900
C942        C  0.88393817  0.36835372  0.95969630     0.90200
O943        O  0.94464893  0.36361169  0.11665672    -0.73600
O944        O  0.92224754  0.36471837  0.05673738    -0.74500
O945        O  0.93667631  0.31817851  0.08209354    -0.63200
O946        O  0.93727453  0.41235473  0.09156694    -0.71600
O947        O  0.99384170  0.43859273  0.08346564    -0.71100
O948        O  0.99338572  0.35039987  0.07432224    -0.62400
O949        O  0.97857919  0.39428198  0.04755373    -0.74900
O950        O  0.00222831  0.39296811  0.11064447    -0.73700
Cu951      Cu  0.93308985  0.36345573  0.08688027     1.04600
Cu952      Cu  0.99388341  0.39489813  0.07860925     1.04300
C953        C  0.97597668  0.37849430  0.12355689     0.92600
C954        C  0.94579150  0.38033883  0.04266561     0.91800
C955        C  0.96645953  0.32041722  0.07756441     0.83900
C956        C  0.96730235  0.44072527  0.08940967     0.90200
O957        O  0.57197653  0.06501837  0.92459363    -0.73600
O958        O  0.65648070  0.15664867  0.93436627    -0.74500
O959        O  0.59461450  0.11281392  0.95946597    -0.63200
O960        O  0.62932451  0.11035747  0.89871404    -0.71600
O961        O  0.59985691  0.13648139  0.88824864    -0.71100
O962        O  0.56844581  0.14049489  0.94639969    -0.62400
O963        O  0.63118727  0.18555638  0.92187352    -0.74900
O964        O  0.54091032  0.08873097  0.91322851    -0.73700
Cu965      Cu  0.61411446  0.11042890  0.92977474     1.04600
Cu966      Cu  0.58416048  0.13888550  0.91710826     1.04300
C967        C  0.54317645  0.06128137  0.91783828     0.92600
C968        C  0.65875559  0.18559295  0.92886312     0.91800
C969        C  0.57492092  0.12667148  0.96215133     0.83900
C970        C  0.61890358  0.12295177  0.88384838     0.90200
O971        O  0.96772701  0.17287376  0.07358863    -0.73600
O972        O  0.96733495  0.08480758  0.08447771    -0.74500
O973        O  0.95983458  0.13263060  0.11088611    -0.63200
O974        O  0.98185443  0.12600491  0.04755391    -0.71600
O975        O  0.53845706  0.15700001  0.05619443    -0.71100
O976        O  0.51749245  0.16368956  0.11623811    -0.62400
O977        O  0.52444247  0.11306304  0.09199463    -0.74900
O978        O  0.52456403  0.20566212  0.08067935    -0.73700
Cu979      Cu  0.96723772  0.12832636  0.07874057     1.04600
Cu980      Cu  0.52827350  0.16115269  0.08634986     1.04300
C981        C  0.49476690  0.20323495  0.07634681     0.92600
C982        C  0.49476052  0.08416082  0.09028186     0.91800
C983        C  0.98625531  0.14826656  0.12360416     0.83900
C984        C  0.51468000  0.13918242  0.04257695     0.90200
C985        C  0.55391758  0.12417043  0.02170712    -0.09800
C986        C  0.52673731  0.13258640  0.02169114     0.06400
C987        C  0.51458918  0.13715810  0.00206286    -0.03500
C988        C  0.53027140  0.13440003  0.98312153    -0.08000
C989        C  0.55824432  0.12690359  0.98305506     0.05500
C990        C  0.56943185  0.12103104  0.00280802    -0.03000
Br991      Br  0.60665011  0.11023810  0.00545719    -0.02700
H992        H  0.56357632  0.12041276  0.03669579     0.09500
H993        H  0.52067736  0.13873805  0.96829583     0.07500
Br994      Br  0.97873490  0.14998233  0.00027308    -0.03100
C995        C  0.95538173  0.22845466  0.06972610    -0.09800
C996        C  0.98919436  0.23438414  0.07540873     0.06400
C997        C  0.51477856  0.26886361  0.08189748    -0.03500
C998        C  0.00614450  0.29570792  0.08250099    -0.08000
C999        C  0.97232401  0.28960561  0.07701354     0.05500
C1000       C  0.94676196  0.25536710  0.07065278    -0.03000
Br1001     Br  0.90014407  0.24391455  0.06242784    -0.02700
H1002       H  0.93497202  0.20239211  0.06474014     0.09500
H1003       H  0.52634699  0.32187101  0.08764100     0.07500
Br1004     Br  0.56140647  0.28138146  0.09094521    -0.03100
C1005       C  0.50866783  0.50553042  0.09071876    -0.09800
C1006       C  0.97367389  0.47717055  0.09328887     0.06400
C1007       C  0.94723001  0.48528193  0.09852448    -0.03500
C1008       C  0.95571154  0.02076751  0.09912565    -0.08000
C1009       C  0.98995267  0.04866107  0.09432037     0.05500
C1010       C  0.51707583  0.04082725  0.09088453    -0.03000
Br1011     Br  0.56497154  0.07608729  0.08489211    -0.02700
H1012       H  0.53007655  0.50051929  0.08747088     0.09500
H1013       H  0.93475109  0.02641748  0.10253592     0.07500
Br1014     Br  0.89946189  0.44999912  0.10473391    -0.03100
C1015       C  0.72208931  0.21532945  0.93984217    -0.09800
C1016       C  0.69463562  0.21791661  0.92977292     0.06400
C1017       C  0.70358791  0.24958892  0.91909154    -0.03500
C1018       C  0.73891730  0.27667600  0.91807247    -0.08000
C1019       C  0.76627031  0.27332709  0.92738970     0.05500
C1020       C  0.75740047  0.24244108  0.93871070    -0.03000
Br1021     Br  0.79202631  0.23663807  0.95383296    -0.02700
H1022       H  0.71627095  0.19171581  0.94850228     0.09500
H1023       H  0.74516110  0.30051604  0.90951113     0.07500
Br1024     Br  0.66966145  0.25762868  0.90483775    -0.03100
C1025       C  0.98530397  0.46154115  0.92374298    -0.09800
C1026       C  0.95756456  0.45405348  0.91001691     0.06400
C1027       C  0.95812230  0.48197671  0.89847133    -0.03500
C1028       C  0.98604313  0.01667849  0.90110727    -0.08000
C1029       C  0.51331997  0.02446294  0.91549303     0.05500
C1030       C  0.51254268  0.99613482  0.92695319    -0.03000
Br1031     Br  0.54505269  0.00228572  0.94925372    -0.02700
H1032       H  0.48434003  0.44058722  0.93345464     0.09500
H1033       H  0.98622165  0.03766270  0.89199996     0.07500
Br1034     Br  0.92118742  0.47413067  0.87906627    -0.03100
C1035       C  0.93223465  0.37406937  0.98283402    -0.09800
C1036       C  0.90099956  0.37585363  0.98099479     0.06400
C1037       C  0.88706801  0.38276004  0.99941191    -0.03500
C1038       C  0.90314867  0.38563424  0.01914439    -0.08000
C1039       C  0.93343136  0.38218732  0.02102314     0.05500
C1040       C  0.94837051  0.37713057  0.00247887    -0.03000
Br1041     Br  0.98863824  0.37078273  0.00310585    -0.02700
H1042       H  0.94390505  0.36937600  0.96886904     0.09500
H1043       H  0.89133182  0.38973417  0.03324707     0.07500
Br1044     Br  0.84497209  0.38590678  0.99891799    -0.03100
C1045       C  0.82185596  0.33210917  0.84397864    -0.09800
C1046       C  0.85384457  0.35261352  0.85457234     0.06400
C1047       C  0.88573587  0.36615055  0.84306585    -0.03500
C1048       C  0.88529719  0.35943364  0.82129247    -0.08000
C1049       C  0.85336586  0.33955108  0.81056256     0.05500
C1050       C  0.82144625  0.32579814  0.82207923    -0.03000
Br1051     Br  0.77661996  0.29892086  0.80829876    -0.02700
H1052       H  0.79730705  0.32064150  0.85275073     0.09500
H1053       H  0.90983572  0.37176469  0.81248280     0.07500
Br1054     Br  0.93070824  0.39581912  0.85615234    -0.03100
C1055       C  0.85291091  0.44210322  0.66562196    -0.09800
C1056       C  0.86517726  0.43273387  0.64770291     0.06400
C1057       C  0.87769616  0.40869783  0.64980549    -0.03500
C1058       C  0.87536254  0.39256376  0.66942593    -0.08000
C1059       C  0.86077340  0.40010154  0.68727665     0.05500
C1060       C  0.85070488  0.42645060  0.68523325    -0.03000
Br1061     Br  0.83362344  0.44375455  0.70798807    -0.02700
H1062       H  0.84354463  0.46071390  0.66416967     0.09500
H1063       H  0.88458326  0.37382683  0.67060941     0.07500
Br1064     Br  0.89927792  0.39800911  0.62642529    -0.03100
C1065       C  0.62489350  0.08854620  0.82941165    -0.09800
C1066       C  0.62596422  0.11495933  0.81621336     0.06400
C1067       C  0.62977984  0.14597994  0.82564385    -0.03500
C1068       C  0.63013298  0.14901629  0.84782793    -0.08000
C1069       C  0.62695768  0.12166605  0.86105663     0.05500
C1070       C  0.62532218  0.09158818  0.85157769    -0.03000
Br1071     Br  0.62013757  0.05232875  0.86782687    -0.02700
H1072       H  0.62239351  0.06461246  0.82244889     0.09500
H1073       H  0.63189900  0.17261681  0.85482743     0.07500
Br1074     Br  0.63581588  0.18534979  0.80914118    -0.03100
C1075       C  0.51531914  0.47632018  0.74455320    -0.09800
C1076       C  0.52408800  0.00135102  0.76090181     0.06400
C1077       C  0.99701837  0.99923405  0.77423571    -0.03500
C1078       C  0.96192008  0.97235055  0.77119051    -0.08000
C1079       C  0.95319837  0.44785428  0.75459826     0.05500
C1080       C  0.98035932  0.45049201  0.74099524    -0.03000
Br1081     Br  0.97147020  0.42157379  0.71597129    -0.02700
H1082       H  0.53548825  0.47876540  0.73350545     0.09500
H1083       H  0.94163627  0.97050797  0.78190312     0.07500
Br1084     Br  0.50735898  0.03291949  0.79687355    -0.03100
C1085       C  0.70159004  0.21950572  0.74751434    -0.09800
C1086       C  0.70698129  0.19073354  0.74327323     0.06400
C1087       C  0.74115934  0.19812502  0.73780289    -0.03500
C1088       C  0.76871586  0.23330842  0.73681703    -0.08000
C1089       C  0.76357294  0.26222700  0.74144395     0.05500
C1090       C  0.72917876  0.25470425  0.74677792    -0.03000
Br1091     Br  0.71749425  0.29056455  0.75360827    -0.02700
H1092       H  0.67561020  0.21464962  0.75190763     0.09500
H1093       H  0.79465981  0.23784125  0.73266417     0.07500
Br1094     Br  0.75197515  0.16169787  0.73090081    -0.03100
C1095       C  0.95686383  0.44804223  0.57143166    -0.09800
C1096       C  0.95171182  0.47585252  0.57808386     0.06400
C1097       C  0.98169422  0.00818929  0.58470928    -0.03500
C1098       C  0.51517527  0.01151431  0.58560639    -0.08000
C1099       C  0.51992059  0.98341667  0.57942603     0.05500
C1100       C  0.99029393  0.45127428  0.57197500    -0.03000
Br1101     Br  0.49295884  0.41008366  0.56307362    -0.02700
H1102       H  0.93463039  0.42320604  0.56627161     0.09500
H1103       H  0.53732655  0.03553827  0.59180021     0.07500
Br1104     Br  0.98030149  0.04899609  0.59524693    -0.03100
C1105       C  0.72688139  0.98914152  0.61279717    -0.09800
C1106       C  0.70000599  0.97190080  0.59778510     0.06400
C1107       C  0.70076843  0.44592793  0.58443515    -0.03500
C1108       C  0.72898548  0.43931879  0.58532475    -0.08000
C1109       C  0.75679187  0.45767557  0.59967382     0.05500
C1110       C  0.75475063  0.98198685  0.61402681    -0.03000
Br1111     Br  0.78858778  0.00506176  0.63634463    -0.02700
H1112       H  0.72590873  0.00782446  0.62385152     0.09500
H1113       H  0.73001252  0.42100436  0.57399100     0.07500
Br1114     Br  0.66506322  0.42068057  0.56343117    -0.03100
C1115       C  0.61825162  0.05594727  0.65317920    -0.09800
C1116       C  0.60734853  0.01943948  0.65214014     0.06400
C1117       C  0.59383040  0.99947430  0.67086013    -0.03500
C1118       C  0.59397183  0.01650415  0.68999242    -0.08000
C1119       C  0.60632270  0.05312569  0.69095034     0.05500
C1120       C  0.61773129  0.07264177  0.67218731    -0.03000
Br1121     Br  0.63570933  0.12268869  0.67206385    -0.02700
H1122       H  0.62795872  0.07215591  0.63912182     0.09500
H1123       H  0.58510776  0.00112520  0.70441738     0.07500
Br1124     Br  0.57590289  0.94946798  0.67180714    -0.03100
C1125       C  0.81848613  0.44691754  0.51196606    -0.09800
C1126       C  0.83826463  0.47755093  0.52463941     0.06400
C1127       C  0.85374987  0.51065119  0.51462253    -0.03500
C1128       C  0.85099843  0.51226996  0.49259474    -0.08000
C1129       C  0.83327619  0.48155953  0.47967128     0.05500
C1130       C  0.81590857  0.44857875  0.48984006    -0.03000
Br1131     Br  0.78861806  0.40479404  0.47477325    -0.02700
H1132       H  0.80538226  0.42105271  0.51921229     0.09500
H1133       H  0.86472422  0.03843771  0.48553005     0.07500
Br1134     Br  0.88061183  0.55489270  0.52944697    -0.03100
C1135       C  0.92002767  0.07299593  0.35444834    -0.09800
C1136       C  0.89081659  0.03808158  0.35458663     0.06400
C1137       C  0.87901608  0.02047149  0.33488610    -0.03500
C1138       C  0.89535097  0.03810267  0.31593592    -0.08000
C1139       C  0.92387127  0.07321641  0.31593644     0.05500
C1140       C  0.93636645  0.09043611  0.33554752    -0.03000
Br1141     Br  0.97355240  0.13873503  0.33741868    -0.02700
H1142       H  0.93014701  0.08738587  0.36921630     0.09500
H1143       H  0.88534322  0.02431722  0.30096824     0.07500
Br1144     Br  0.83998715  0.47309540  0.33247771    -0.03100
C1145       C  0.01222065  0.15324350  0.15941673    -0.09800
C1146       C  0.98275432  0.14737611  0.14720519     0.06400
C1147       C  0.45173995  0.13997683  0.15799687    -0.03500
C1148       C  0.45010214  0.13683129  0.18016187    -0.08000
C1149       C  0.97890721  0.14095865  0.19223934     0.05500
C1150       C  0.01066793  0.15024992  0.18156947    -0.03000
Br1151     Br  0.05236883  0.15733938  0.19579557    -0.02700
H1152       H  0.03670859  0.15921619  0.15165634     0.09500
H1153       H  0.42556366  0.13058723  0.18795996     0.07500
Br1154     Br  0.41090586  0.13474902  0.14362091    -0.03100
C1155       C  0.63396204  0.48938349  0.49243000    -0.09800
C1156       C  0.59995973  0.47346683  0.48389887     0.06400
C1157       C  0.57085986  0.45232991  0.49716092    -0.03500
C1158       C  0.57601843  0.44822433  0.51863175    -0.08000
C1159       C  0.60991681  0.46500819  0.52737369     0.05500
C1160       C  0.63910489  0.48526384  0.51394347    -0.03000
Br1161     Br  0.68704076  0.00928547  0.52431356    -0.02700
H1162       H  0.65660052  0.50436073  0.48224601     0.09500
H1163       H  0.55327365  0.43368964  0.52880336     0.07500
Br1164     Br  0.52319113  0.43031117  0.48701484    -0.03100
C1165       C  0.71126752  0.01262262  0.42091235    -0.09800
C1166       C  0.68358270  0.48129337  0.41151746     0.06400
C1167       C  0.69270988  0.45922192  0.40011713    -0.03500
C1168       C  0.72808317  0.46752575  0.39914685    -0.08000
C1169       C  0.75582255  0.99810082  0.40936575     0.05500
C1170       C  0.74664197  0.02087066  0.42013557    -0.03000
Br1171     Br  0.78031030  0.06260005  0.43511110    -0.02700
H1172       H  0.70485683  0.03025727  0.42953450     0.09500
H1173       H  0.73411603  0.44973912  0.39039935     0.07500
Br1174     Br  0.65829632  0.41853871  0.38467437    -0.03100
C1175       C  0.49079763  0.99508453  0.44060154    -0.09800
C1176       C  0.49059536  0.46860256  0.42726401     0.06400
C1177       C  0.96377241  0.45167714  0.41220443    -0.03500
C1178       C  0.93789572  0.46127315  0.41028663    -0.08000
C1179       C  0.93797467  0.98768854  0.42331170     0.05500
C1180       C  0.96384291  0.00337093  0.43923576    -0.03000
Br1181     Br  0.46431532  0.03715702  0.45936386    -0.02700
H1182       H  0.51169089  0.00881255  0.45212443     0.09500
H1183       H  0.91790962  0.44817028  0.39817181     0.07500
Br1184     Br  0.96264568  0.41713911  0.39262136    -0.03100
C1185       C  0.94730086  0.25528372  0.25338392    -0.09800
C1186       C  0.98060473  0.28332064  0.25962466     0.06400
C1187       C  0.50602281  0.27516062  0.26678964    -0.03500
C1188       C  0.49743618  0.23975346  0.26819851    -0.08000
C1189       C  0.96400143  0.21143367  0.26194402     0.05500
C1190       C  0.93895813  0.21986280  0.25418951    -0.03000
Br1191     Br  0.89343558  0.18513153  0.24366139    -0.02700
H1192       H  0.92751439  0.26097782  0.24747022     0.09500
H1193       H  0.51759686  0.23451886  0.27396007     0.07500
Br1194     Br  0.55241881  0.31068340  0.27534675    -0.03100
C1195       C  0.94760646  0.49905351  0.26203534    -0.09800
C1196       C  0.96598802  0.02577464  0.24724091     0.06400
C1197       C  0.49341181  0.02585608  0.23531369    -0.03500
C1198       C  0.50152080  0.99888878  0.23793182    -0.08000
C1199       C  0.98305687  0.47208171  0.25275235     0.05500
C1200       C  0.95612687  0.47270208  0.26510484    -0.03000
Br1201     Br  0.93124510  0.43984728  0.28760033    -0.02700
H1202       H  0.92781316  0.49982959  0.27210135     0.09500
H1203       H  0.52170833  0.99847665  0.22809912     0.07500
Br1204     Br  0.51981835  0.06184867  0.21483092    -0.03100
C1205       C  0.51431639  0.43913431  0.32724051    -0.09800
C1206       C  0.51670594  0.41032536  0.31894731     0.06400
C1207       C  0.53823395  0.39992256  0.32940850    -0.03500
C1208       C  0.55656757  0.41766577  0.34769695    -0.08000
C1209       C  0.55399935  0.44607504  0.35639141     0.05500
C1210       C  0.53257210  0.45688262  0.34591468    -0.03000
Br1211     Br  0.52624312  0.49446645  0.35682594    -0.02700
H1212       H  0.49898572  0.44841843  0.31889261     0.09500
H1213       H  0.57227733  0.40838229  0.35561678     0.07500
Br1214     Br  0.04273320  0.36074233  0.31955859    -0.03100
C1215       C  0.95602377  0.38455718  0.15923242    -0.09800
C1216       C  0.97983298  0.37913113  0.14685420     0.06400
C1217       C  0.50304802  0.37068142  0.15701301    -0.03500
C1218       C  0.50157415  0.36709606  0.17916559    -0.08000
C1219       C  0.97723624  0.37187661  0.19151090     0.05500
C1220       C  0.95478956  0.38138980  0.18130942    -0.03000
Br1221     Br  0.92438070  0.39364782  0.19672040    -0.02700
H1222       H  0.93827090  0.39159449  0.15162560     0.09500
H1223       H  0.51976888  0.36076232  0.18685657     0.07500
Br1224     Br  0.53587187  0.36221753  0.14138855    -0.03100
O1225       O  0.52921066  0.90526155  0.28348854    -0.73600
O1226       O  0.51124762  0.88848263  0.22239000    -0.74500
O1227       O  0.51756954  0.94238351  0.25085524    -0.63200
O1228       O  0.51621307  0.84747684  0.25543524    -0.71600
O1229       O  0.95927639  0.82294576  0.26244932    -0.71100
O1230       O  0.96001024  0.91165562  0.25637327    -0.62400
O1231       O  0.95331889  0.86008919  0.22728737    -0.74900
O1232       O  0.97247638  0.88037711  0.29127267    -0.73700
Cu1233     Cu  0.52065479  0.89674567  0.25286668     1.04600
Cu1234     Cu  0.95930904  0.86758344  0.25961059     1.04300
C1235       C  0.50485109  0.89754491  0.29698973     0.92600
C1236       C  0.98022140  0.87284375  0.21483267     0.91800
C1237       C  0.48767678  0.94091511  0.25334656     0.83900
C1238       C  0.48620622  0.81985859  0.25927041     0.90200
O1239       O  0.64305399  0.00177573  0.41144403    -0.73600
O1240       O  0.55228462  0.99659498  0.42344000    -0.74500
O1241       O  0.60777611  0.00251069  0.44946677    -0.63200
O1242       O  0.58296838  0.98903146  0.38535813    -0.71600
O1243       O  0.56188826  0.93189579  0.39067221    -0.71100
O1244       O  0.57931482  0.94403519  0.45166354    -0.62400
O1245       O  0.52419326  0.93809018  0.42523713    -0.74900
O1246       O  0.62056050  0.94434725  0.41649779    -0.73700
Cu1247     Cu  0.59757875  0.99959038  0.41723965     1.04600
Cu1248     Cu  0.57072696  0.93761042  0.42111700     1.04300
C1249       C  0.64726455  0.97512621  0.41287317     0.92600
C1250       C  0.52389212  0.96739717  0.42558478     0.91800
C1251       C  0.59584409  0.97415452  0.46052360     0.83900
C1252       C  0.56732133  0.95692621  0.37836393     0.90200
O1253       O  0.98556480  0.67195456  0.26614847    -0.73600
O1254       O  0.98947131  0.58588474  0.25410393    -0.74500
O1255       O  0.99837571  0.64315422  0.22898001    -0.63200
O1256       O  0.97049485  0.61037584  0.29097371    -0.71600
O1257       O  0.91470301  0.58552112  0.28093849    -0.71100
O1258       O  0.94154353  0.61317075  0.22139887    -0.62400
O1259       O  0.93234050  0.55557519  0.24662037    -0.74900
O1260       O  0.93007639  0.64736977  0.25594610    -0.73700
Cu1261     Cu  0.98791170  0.62891310  0.26047894     1.04600
Cu1262     Cu  0.92766477  0.59953963  0.25100900     1.04300
C1263       C  0.95896376  0.67493180  0.26162807     0.92600
C1264       C  0.96224305  0.55720604  0.24884140     0.91800
C1265       C  0.97324401  0.63237780  0.21536498     0.83900
C1266       C  0.93738842  0.59118177  0.29517912     0.90200
O1267       O  0.79377730  0.97441705  0.40620125    -0.73600
O1268       O  0.87939793  0.96884120  0.41444051    -0.74500
O1269       O  0.82512019  0.96108308  0.44234530    -0.63200
O1270       O  0.85362232  0.48946250  0.37926493    -0.71600
O1271       O  0.88054142  0.54473373  0.39074139    -0.71100
O1272       O  0.85383677  0.51798148  0.44973270    -0.62400
O1273       O  0.91035569  0.52487639  0.42434946    -0.74900
O1274       O  0.81940494  0.53029133  0.41596511    -0.73700
Cu1275     Cu  0.83682857  0.97151373  0.41013694     1.04600
Cu1276     Cu  0.86689285  0.53142519  0.42039715     1.04300
C1277       C  0.79138559  0.50158969  0.41039128     0.92600
C1278       C  0.90801758  0.49467659  0.42076555     0.91800
C1279       C  0.83660878  0.48635358  0.45606657     0.83900
C1280       C  0.87350884  0.52277455  0.37563988     0.90200
O1281       O  0.62852001  0.52698933  0.61681777    -0.73600
O1282       O  0.63133966  0.50125305  0.55737665    -0.74500
O1283       O  0.58367322  0.51336204  0.58130756    -0.63200
O1284       O  0.67375342  0.50865834  0.59286613    -0.71600
O1285       O  0.63904765  0.95218497  0.60002353    -0.71100
O1286       O  0.55288599  0.95749052  0.59046861    -0.62400
O1287       O  0.59659472  0.94483336  0.56355052    -0.74900
O1288       O  0.59592456  0.47145191  0.62676344    -0.73700
Cu1289     Cu  0.63063607  0.51451666  0.58698931     1.04600
Cu1290     Cu  0.59525355  0.95446909  0.59563102     1.04300
C1291       C  0.61079817  0.50472298  0.63112150     0.92600
C1292       C  0.61332682  0.46971284  0.55066382     0.91800
C1293       C  0.55385710  0.48478489  0.58366914     0.83900
C1294       C  0.66972297  0.47815963  0.59725492     0.90200
O1295       O  0.63723624  0.59112289  0.78550851    -0.73600
O1296       O  0.63099414  0.56502649  0.72501882    -0.74500
O1297       O  0.67883788  0.62708496  0.74964466    -0.63200
O1298       O  0.58764781  0.53316438  0.76038747    -0.71600
O1299       O  0.55842075  0.56192472  0.75566320    -0.71100
O1300       O  0.64550625  0.65052339  0.74259764    -0.62400
O1301       O  0.59784342  0.58878742  0.71779530    -0.74900
O1302       O  0.60777262  0.61946890  0.78057063    -0.73700
Cu1303     Cu  0.63496350  0.57836236  0.75530394     1.04600
Cu1304     Cu  0.60147090  0.60625614  0.74886513     1.04300
C1305       C  0.62371333  0.60878787  0.79294374     0.92600
C1306       C  0.61206894  0.57038146  0.71208371     0.91800
C1307       C  0.67591366  0.65410699  0.74495034     0.83900
C1308       C  0.55855796  0.53357623  0.75957378     0.90200
O1309       O  0.91085632  0.99554160  0.58486829    -0.73600
O1310       O  0.81883678  0.98536535  0.59942084    -0.74500
O1311       O  0.87038849  0.97639546  0.62231334    -0.63200
O1312       O  0.85764800  0.99894020  0.56096290    -0.71600
O1313       O  0.83331031  0.94190254  0.55383164    -0.71100
O1314       O  0.84318569  0.91978893  0.61289081    -0.62400
O1315       O  0.79046125  0.92873371  0.59037796    -0.74900
O1316       O  0.88758506  0.93880078  0.57732007    -0.73700
Cu1317     Cu  0.86521247  0.99099295  0.59218485     1.04600
Cu1318     Cu  0.83758726  0.93027669  0.58332248     1.04300
C1319       C  0.91488498  0.96963947  0.57986064     0.92600
C1320       C  0.79002518  0.95662987  0.59677762     0.91800
C1321       C  0.85966485  0.94387404  0.62666781     0.83900
C1322       C  0.84335991  0.97309498  0.54762333     0.90200
O1323       O  0.83980839  0.86208071  0.78145982    -0.73600
O1324       O  0.83980358  0.88656780  0.72247400    -0.74500
O1325       O  0.79400921  0.82630281  0.74774127    -0.63200
O1326       O  0.88889321  0.91885161  0.75592256    -0.71600
O1327       O  0.91470848  0.88787822  0.74750939    -0.71100
O1328       O  0.82477124  0.80135598  0.73744617    -0.62400
O1329       O  0.87096813  0.86248704  0.71158541    -0.74900
O1330       O  0.86773015  0.83259706  0.77408619    -0.73700
Cu1331     Cu  0.83951245  0.87430298  0.75209528     1.04600
Cu1332     Cu  0.87031376  0.84483603  0.74224748     1.04300
C1333       C  0.85333638  0.84399448  0.78749388     0.92600
C1334       C  0.85688770  0.88167794  0.70788838     0.91800
C1335       C  0.79518992  0.79858223  0.74197181     0.83900
C1336       C  0.91699573  0.91702526  0.75266681     0.90200
O1337       O  0.80683620  0.83434242  0.92670347    -0.73600
O1338       O  0.89680100  0.92014457  0.91497091    -0.74500
O1339       O  0.84247644  0.87043436  0.88885331    -0.63200
O1340       O  0.86661118  0.88278489  0.95274878    -0.71600
O1341       O  0.88916571  0.84788938  0.94759784    -0.71100
O1342       O  0.87006143  0.83951615  0.88676384    -0.62400
O1343       O  0.92514824  0.89007331  0.91246447    -0.74900
O1344       O  0.82979866  0.79961118  0.92227758    -0.73700
Cu1345     Cu  0.85195427  0.87778785  0.92104927     1.04600
Cu1346     Cu  0.87919442  0.84292045  0.91719983     1.04300
C1347       C  0.80294958  0.80354069  0.92566147     0.92600
C1348       C  0.92509024  0.91949170  0.91204113     0.91800
C1349       C  0.85483092  0.85409890  0.87784609     0.83900
C1350       C  0.88398095  0.86830103  0.95964592     0.90200
O1351       O  0.94455890  0.86360903  0.11661202    -0.73600
O1352       O  0.92223537  0.86470480  0.05668647    -0.74500
O1353       O  0.93659870  0.81814533  0.08207146    -0.63200
O1354       O  0.93726621  0.91238528  0.09149095    -0.71600
O1355       O  0.99384413  0.93854650  0.08343353    -0.71100
O1356       O  0.99331483  0.85033161  0.07430416    -0.62400
O1357       O  0.97857787  0.89424215  0.04752299    -0.74900
O1358       O  0.00214554  0.89288445  0.11062005    -0.73700
Cu1359     Cu  0.93304075  0.86345188  0.08683208     1.04600
Cu1360     Cu  0.99384435  0.89483796  0.07858422     1.04300
C1361       C  0.97587766  0.87843852  0.12352190     0.92600
C1362       C  0.94579629  0.88031472  0.04262337     0.91800
C1363       C  0.96637775  0.82036288  0.07755414     0.83900
C1364       C  0.96731859  0.94073129  0.08933964     0.90200
O1365       O  0.57194404  0.56499169  0.92464536    -0.73600
O1366       O  0.65648380  0.65659850  0.93439858    -0.74500
O1367       O  0.59459886  0.61278907  0.95951119    -0.63200
O1368       O  0.62928718  0.61029159  0.89874744    -0.71600
O1369       O  0.59984354  0.63643937  0.88828182    -0.71100
O1370       O  0.56847175  0.64050612  0.94643983    -0.62400
O1371       O  0.63121908  0.68552754  0.92189757    -0.74900
O1372       O  0.54089961  0.58873216  0.91328139    -0.73700
Cu1373     Cu  0.61409591  0.61038865  0.92981585     1.04600
Cu1374     Cu  0.58417190  0.63887330  0.91714637     1.04300
C1375       C  0.54314754  0.56127525  0.91789841     0.92600
C1376       C  0.65878087  0.68554768  0.92888371     0.91800
C1377       C  0.57491054  0.62665475  0.96219195     0.83900
C1378       C  0.61886669  0.62288389  0.88387920     0.90200
O1379       O  0.96766588  0.67284454  0.07364306    -0.73600
O1380       O  0.96729145  0.58480236  0.08452161    -0.74500
O1381       O  0.95984217  0.63263680  0.11094886    -0.63200
O1382       O  0.98175917  0.62596673  0.04759302    -0.71600
O1383       O  0.53826955  0.65685037  0.05619978    -0.71100
O1384       O  0.51733092  0.66364751  0.11622477    -0.62400
O1385       O  0.52422573  0.61295211  0.09202468    -0.74900
O1386       O  0.52440753  0.70556518  0.08064728    -0.73700
Cu1387     Cu  0.96719101  0.62831046  0.07879222     1.04600
Cu1388     Cu  0.52809240  0.66105141  0.08634611     1.04300
C1389       C  0.49461455  0.70315418  0.07632299     0.92600
C1390       C  0.49453422  0.58405961  0.09031468     0.91800
C1391       C  0.98627924  0.64828153  0.12365611     0.83900
C1392       C  0.51449279  0.63904462  0.04258093     0.90200
C1393       C  0.55367971  0.62393806  0.02173137    -0.09800
C1394       C  0.52655721  0.63243677  0.02170051     0.06400
C1395       C  0.51451635  0.63712879  0.00206675    -0.03500
C1396       C  0.53025665  0.63442011  0.98313697    -0.08000
C1397       C  0.55818204  0.62685132  0.98308595     0.05500
C1398       C  0.56924778  0.62084167  0.00284281    -0.03000
Br1399     Br  0.60636010  0.60990059  0.00551517    -0.02700
H1400       H  0.56325526  0.62008759  0.03672522     0.09500
H1401       H  0.52074409  0.63885283  0.96830871     0.07500
Br1402     Br  0.97867078  0.65001159  0.00030830    -0.03100
C1403       C  0.95536258  0.72843811  0.06966850    -0.09800
C1404       C  0.98913737  0.73435124  0.07543599     0.06400
C1405       C  0.51460035  0.76874417  0.08198973    -0.03500
C1406       C  0.00601591  0.79563428  0.08260683    -0.08000
C1407       C  0.97223527  0.78954881  0.07703098     0.05500
C1408       C  0.94672695  0.75534056  0.07058954    -0.03000
Br1409     Br  0.90017646  0.74393503  0.06223952    -0.02700
H1410       H  0.93499752  0.70239709  0.06461610     0.09500
H1411       H  0.52614170  0.82172268  0.08782110     0.07500
Br1412     Br  0.56111872  0.78116564  0.09121438    -0.03100
C1413       C  0.50882772  0.00560834  0.09037158    -0.09800
C1414       C  0.97374184  0.97720999  0.09316970     0.06400
C1415       C  0.94741621  0.98536424  0.09866547    -0.03500
C1416       C  0.95551037  0.52067584  0.09897674    -0.08000
C1417       C  0.98984208  0.54860878  0.09439419     0.05500
C1418       C  0.51688789  0.54074418  0.09120151    -0.03000
Br1419     Br  0.56490109  0.57604371  0.08554048    -0.02700
H1420       H  0.53016397  0.00057495  0.08691702     0.09500
H1421       H  0.93446634  0.52628189  0.10218956     0.07500
Br1422     Br  0.89981247  0.95012662  0.10528245    -0.03100
C1423       C  0.72214616  0.71523709  0.93979645    -0.09800
C1424       C  0.69467621  0.71785541  0.92977305     0.06400
C1425       C  0.70361954  0.74954617  0.91911667    -0.03500
C1426       C  0.73894945  0.77662787  0.91808657    -0.08000
C1427       C  0.76631563  0.77325450  0.92736294     0.05500
C1428       C  0.75745980  0.74233993  0.93864884    -0.03000
Br1429     Br  0.79210998  0.73647449  0.95369657    -0.02700
H1430       H  0.71633949  0.69160496  0.94843128     0.09500
H1431       H  0.74518206  0.80048346  0.90954687     0.07500
Br1432     Br  0.66968055  0.75762243  0.90490967    -0.03100
C1433       C  0.98533329  0.96144355  0.92372161    -0.09800
C1434       C  0.95761340  0.95397268  0.90998231     0.06400
C1435       C  0.95818884  0.98190998  0.89844345    -0.03500
C1436       C  0.98598020  0.51674912  0.90111508    -0.08000
C1437       C  0.51327878  0.52446728  0.91556853     0.05500
C1438       C  0.51244744  0.49617272  0.92709393    -0.03000
Br1439     Br  0.54481859  0.50240987  0.94950218    -0.02700
H1440       H  0.48443839  0.94053999  0.93328685     0.09500
H1441       H  0.98614449  0.53772263  0.89200377     0.07500
Br1442     Br  0.92128369  0.97409009  0.87902101    -0.03100
C1443       C  0.93225280  0.87398851  0.98279482    -0.09800
C1444       C  0.90103897  0.87581001  0.98094458     0.06400
C1445       C  0.88712399  0.88276399  0.99935210    -0.03500
C1446       C  0.90320176  0.88565389  0.01908680    -0.08000
C1447       C  0.93345968  0.88216769  0.02097708     0.05500
C1448       C  0.94838042  0.87705658  0.00244291    -0.03000
Br1449     Br  0.98860015  0.87063130  0.00309255    -0.02700
H1450       H  0.94390947  0.86925598  0.96883744     0.09500
H1451       H  0.89139742  0.88978986  0.03318325     0.07500
Br1452     Br  0.84504814  0.88594695  0.99884562    -0.03100
C1453       C  0.82186604  0.83192230  0.84394709    -0.09800
C1454       C  0.85385719  0.85248112  0.85452809     0.06400
C1455       C  0.88574206  0.86604982  0.84301259    -0.03500
C1456       C  0.88529272  0.85932669  0.82123951    -0.08000
C1457       C  0.85335662  0.83939770  0.81052128     0.05500
C1458       C  0.82144562  0.82559763  0.82204906    -0.03000
Br1459     Br  0.77661732  0.79864389  0.80828140    -0.02700
H1460       H  0.79732449  0.82042524  0.85272787     0.09500
H1461       H  0.90982208  0.87168800  0.81242085     0.07500
Br1462     Br  0.93071524  0.89576312  0.85608737    -0.03100
C1463       C  0.85272610  0.94201766  0.66562263    -0.09800
C1464       C  0.86505542  0.93270964  0.64770779     0.06400
C1465       C  0.87761530  0.90870691  0.64980704    -0.03500
C1466       C  0.87527298  0.89255339  0.66942164    -0.08000
C1467       C  0.86062405  0.90002995  0.68726782     0.05500
C1468       C  0.85049615  0.92633494  0.68522584    -0.03000
Br1469     Br  0.83327214  0.94352167  0.70796587    -0.02700
H1470       H  0.84332043  0.96059665  0.66417041     0.09500
H1471       H  0.88453502  0.87384932  0.67060389     0.07500
Br1472     Br  0.89925802  0.89808651  0.62643104    -0.03100
C1473       C  0.62477694  0.58840769  0.82943947    -0.09800
C1474       C  0.62585468  0.61481739  0.81623464     0.06400
C1475       C  0.62970162  0.64585480  0.82566072    -0.03500
C1476       C  0.63007462  0.64891131  0.84784510    -0.08000
C1477       C  0.62689191  0.62156655  0.86108189     0.05500
C1478       C  0.62522412  0.59146963  0.85160719    -0.03000
Br1479     Br  0.62001891  0.55221333  0.86786782    -0.02700
H1480       H  0.62225619  0.56446288  0.82248082     0.09500
H1481       H  0.63186522  0.67252627  0.85483871     0.07500
Br1482     Br  0.63576122  0.68522578  0.80914971    -0.03100
C1483       C  0.51535517  0.97644565  0.74463212    -0.09800
C1484       C  0.52401289  0.50116976  0.76085340     0.06400
C1485       C  0.99718302  0.49926273  0.77429292    -0.03500
C1486       C  0.96206619  0.47240473  0.77126288    -0.08000
C1487       C  0.95312424  0.94770495  0.75458852     0.05500
C1488       C  0.98034366  0.95027622  0.74106261    -0.03000
Br1489     Br  0.97158201  0.92126203  0.71609605    -0.02700
H1490       H  0.53550535  0.97884165  0.73358232     0.09500
H1491       H  0.94182823  0.47049956  0.78203800     0.07500
Br1492     Br  0.50721892  0.53253178  0.79690528    -0.03100
C1493       C  0.70140145  0.71946614  0.74732032    -0.09800
C1494       C  0.70682725  0.69066625  0.74325784     0.06400
C1495       C  0.74106089  0.69803181  0.73795794    -0.03500
C1496       C  0.76862982  0.73320541  0.73697514    -0.08000
C1497       C  0.76345007  0.76214776  0.74142978     0.05500
C1498       C  0.72900523  0.75466013  0.74658046    -0.03000
Br1499     Br  0.71726763  0.79057460  0.75311864    -0.02700
H1500       H  0.67538122  0.71464277  0.75157316     0.09500
H1501       H  0.79461429  0.73771173  0.73296592     0.07500
Br1502     Br  0.75197214  0.66159188  0.73129764    -0.03100
C1503       C  0.95677875  0.94813540  0.57129352    -0.09800
C1504       C  0.95158259  0.97581862  0.57816822     0.06400
C1505       C  0.98188284  0.50835199  0.58439858    -0.03500
C1506       C  0.51530078  0.51145043  0.58395280    -0.08000
C1507       C  0.51969339  0.48266647  0.57905562     0.05500
C1508       C  0.99021248  0.95137447  0.57180571    -0.03000
Br1509     Br  0.49397250  0.91225027  0.56138558    -0.02700
H1510       H  0.93458079  0.92339618  0.56597798     0.09500
H1511       H  0.53770770  0.53602688  0.58931388     0.07500
Br1512     Br  0.98059557  0.54944550  0.59447045    -0.03100
C1513       C  0.72691625  0.48901805  0.61284629    -0.09800
C1514       C  0.69996007  0.47166509  0.59789481     0.06400
C1515       C  0.70086824  0.94625015  0.58427393    -0.03500
C1516       C  0.72904313  0.93958246  0.58519656    -0.08000
C1517       C  0.75676308  0.95781483  0.59961805     0.05500
C1518       C  0.75481358  0.48189926  0.61405642    -0.03000
Br1519     Br  0.78872445  0.50507250  0.63632563    -0.02700
H1520       H  0.72598272  0.50775542  0.62387245     0.09500
H1521       H  0.73011718  0.92133262  0.57383122     0.07500
Br1522     Br  0.66531452  0.92123137  0.56315282    -0.03100
C1523       C  0.61869945  0.55612554  0.65318269    -0.09800
C1524       C  0.60742180  0.51953293  0.65210266     0.06400
C1525       C  0.59353259  0.49951834  0.67077766    -0.03500
C1526       C  0.59363132  0.51654047  0.68990280    -0.08000
C1527       C  0.60629426  0.55321244  0.69090195     0.05500
C1528       C  0.61812232  0.57281399  0.67218615    -0.03000
Br1529     Br  0.63654212  0.62293512  0.67214151    -0.02700
H1530       H  0.62872769  0.57239287  0.63916772     0.09500
H1531       H  0.58447708  0.50110441  0.70429338     0.07500
Br1532     Br  0.57506021  0.44941546  0.67168590    -0.03100
C1533       C  0.81843720  0.94710277  0.51198536    -0.09800
C1534       C  0.83833278  0.97770629  0.52465872     0.06400
C1535       C  0.85403766  0.01081089  0.51463725    -0.03500
C1536       C  0.85136647  0.01245009  0.49260528    -0.08000
C1537       C  0.83351560  0.98175397  0.47968365     0.05500
C1538       C  0.81594708  0.94878229  0.48985441    -0.03000
Br1539     Br  0.78849228  0.90503289  0.47478441    -0.02700
H1540       H  0.80517550  0.92124375  0.51923716     0.09500
H1541       H  0.86418721  0.53826242  0.48552294     0.07500
Br1542     Br  0.88113266  0.05501617  0.52945954    -0.03100
C1543       C  0.91967080  0.57301001  0.35448412    -0.09800
C1544       C  0.89055719  0.53803499  0.35459373     0.06400
C1545       C  0.87895575  0.52039245  0.33488609    -0.03500
C1546       C  0.89537075  0.53805021  0.31595598    -0.08000
C1547       C  0.92378750  0.57321924  0.31598491     0.05500
C1548       C  0.93609510  0.59047173  0.33560447    -0.03000
Br1549     Br  0.97313150  0.63883213  0.33750377    -0.02700
H1550       H  0.92965126  0.58742905  0.36925676     0.09500
H1551       H  0.88550747  0.52424158  0.30097976     0.07500
Br1552     Br  0.83986555  0.97326970  0.33252035    -0.03100
C1553       C  0.01228402  0.65328287  0.15946667    -0.09800
C1554       C  0.98280641  0.64740671  0.14726162     0.06400
C1555       C  0.45166344  0.64009898  0.15800607    -0.03500
C1556       C  0.45004425  0.63695611  0.18017152    -0.08000
C1557       C  0.97898752  0.64098464  0.19229981     0.05500
C1558       C  0.01074530  0.65029038  0.18162205    -0.03000
Br1559     Br  0.05245886  0.65741055  0.19584499    -0.02700
H1560       H  0.03676854  0.65926272  0.15169907     0.09500
H1561       H  0.42553845  0.63078922  0.18798506     0.07500
Br1562     Br  0.41088885  0.63504963  0.14364707    -0.03100
C1563       C  0.63447217  0.99065855  0.49235122    -0.09800
C1564       C  0.60051481  0.97440898  0.48373275     0.06400
C1565       C  0.57141026  0.95306422  0.49694271    -0.03500
C1566       C  0.57651630  0.94896822  0.51842088    -0.08000
C1567       C  0.61034963  0.96603409  0.52724681     0.05500
C1568       C  0.63955323  0.98659991  0.51388822    -0.03000
Br1569     Br  0.68663815  0.50748111  0.52425591    -0.02700
H1570       H  0.65712789  0.00583526  0.48221996     0.09500
H1571       H  0.55375950  0.93417949  0.52852638     0.07500
Br1572     Br  0.52376274  0.93071442  0.48672264    -0.03100
C1573       C  0.71078400  0.51213442  0.42113727    -0.09800
C1574       C  0.68405110  0.98172950  0.41134429     0.06400
C1575       C  0.69315398  0.95957262  0.40002414    -0.03500
C1576       C  0.72851246  0.96783029  0.39909507    -0.08000
C1577       C  0.75538127  0.49775846  0.40945304     0.05500
C1578       C  0.74616773  0.52042385  0.42032191    -0.03000
Br1579     Br  0.77980047  0.56204617  0.43539793    -0.02700
H1580       H  0.70435473  0.52969648  0.42982861     0.09500
H1581       H  0.73452095  0.94997243  0.39041026     0.07500
Br1582     Br  0.65872710  0.91882674  0.38463386    -0.03100
C1583       C  0.48997875  0.49416657  0.44083518    -0.09800
C1584       C  0.49120193  0.96925727  0.42717276     0.06400
C1585       C  0.96400322  0.95171902  0.41207793    -0.03500
C1586       C  0.93817266  0.96138173  0.41018341    -0.08000
C1587       C  0.93776739  0.48773842  0.42329687     0.05500
C1588       C  0.96378307  0.50367920  0.43911984    -0.03000
Br1589     Br  0.46303422  0.53570023  0.45981764    -0.02700
H1590       H  0.51067595  0.50765091  0.45250436     0.09500
H1591       H  0.91827594  0.94845856  0.39799948     0.07500
Br1592     Br  0.96298285  0.91739663  0.39235840    -0.03100
C1593       C  0.94734411  0.75531475  0.25333044    -0.09800
C1594       C  0.98064456  0.78336048  0.25956812     0.06400
C1595       C  0.50581734  0.77507360  0.26683627    -0.03500
C1596       C  0.49723195  0.73966815  0.26825296    -0.08000
C1597       C  0.96405195  0.71147791  0.26191517     0.05500
C1598       C  0.93901117  0.71989682  0.25414281    -0.03000
Br1599     Br  0.89351249  0.68515620  0.24358908    -0.02700
H1600       H  0.92755411  0.76100024  0.24741253     0.09500
H1601       H  0.51735556  0.73443159  0.27408157     0.07500
Br1602     Br  0.55216570  0.81059573  0.27547104    -0.03100
C1603       C  0.94757681  0.99905596  0.26194841    -0.09800
C1604       C  0.96606739  0.52580968  0.24735720     0.06400
C1605       C  0.49345989  0.52588772  0.23530746    -0.03500
C1606       C  0.50160012  0.49894356  0.23793676    -0.08000
C1607       C  0.98299388  0.97206160  0.25263919     0.05500
C1608       C  0.95610596  0.97271225  0.26501884    -0.03000
Br1609     Br  0.93130254  0.93991661  0.28755397    -0.02700
H1610       H  0.92782202  0.99986076  0.27203741     0.09500
H1611       H  0.52181990  0.49856293  0.22812057     0.07500
Br1612     Br  0.51987572  0.56189476  0.21483578    -0.03100
C1613       C  0.51409184  0.93899882  0.32724969    -0.09800
C1614       C  0.51638646  0.91013042  0.31896720     0.06400
C1615       C  0.53786147  0.89966652  0.32943171    -0.03500
C1616       C  0.55634496  0.91749100  0.34766522    -0.08000
C1617       C  0.55394523  0.94601923  0.35632154     0.05500
C1618       C  0.53245018  0.95679274  0.34589024    -0.03000
Br1619     Br  0.52612155  0.99435707  0.35683942    -0.02700
H1620       H  0.49875764  0.94829503  0.31891761     0.09500
H1621       H  0.57205277  0.90818945  0.35556835     0.07500
Br1622     Br  0.04229086  0.86041235  0.31953722    -0.03100
C1623       C  0.95591070  0.88448491  0.15919404    -0.09800
C1624       C  0.97970716  0.87903735  0.14681711     0.06400
C1625       C  0.50302743  0.87062693  0.15699126    -0.03500
C1626       C  0.50153448  0.86704687  0.17914579    -0.08000
C1627       C  0.97707822  0.87174333  0.19146676     0.05500
C1628       C  0.95465981  0.88129616  0.18126899    -0.03000
Br1629     Br  0.92427866  0.89358733  0.19668362    -0.02700
H1630       H  0.93818593  0.89156114  0.15158836     0.09500
H1631       H  0.51968109  0.86065562  0.18684533     0.07500
Br1632     Br  0.53578142  0.86204603  0.14137630    -0.03100
loop_ 
_geom_bond_atom_site_label_1 
_geom_bond_atom_site_label_2 
_geom_bond_distance 
_geom_bond_site_symmetry_2 
_ccdc_geom_bond_type 
O1           Cu9   1.962       .  S
O1           C11   1.269       .  A
O2           Cu9   1.957       .  S
O2          C828   1.268   1_455  A
O3           Cu9   2.070       .  S
O3           C13   1.288   1_455  A
O4           Cu9   2.070       .  S
O4           C14   1.288   1_455  A
O5          Cu10   1.959       .  S
O5          C830   1.269       .  A
O6          Cu10   1.923       .  S
O6          C829   1.263       .  A
O7          Cu10   2.055       .  S
O7           C12   1.286       .  A
O8          Cu10   2.071       .  S
O8          C827   1.287       .  A
Cu9        Cu826   2.369   1_455  S
Cu10       Cu825   2.369       .  S
C11         O824   1.287   1_455  A
C11         C390   1.479       .  S
C12         O818   1.268       .  A
C12         C403   1.476       .  S
C13         O822   1.263       .  A
C13        C1199   1.475       .  S
C14         O821   1.269       .  A
C14        C1186   1.489       .  S
O15         Cu23   1.979       .  S
O15          C25   1.271       .  A
O16         Cu23   1.960       .  S
O16          C26   1.268       .  A
O17         Cu23   2.069       .  S
O17          C27   1.287       .  A
O18         Cu23   2.086       .  S
O18          C28   1.289       .  A
O19         Cu24   1.946       .  S
O19          C28   1.268       .  A
O20         Cu24   1.953       .  S
O20          C27   1.267       .  A
O21         Cu24   2.064       .  S
O21          C26   1.287       .  A
O22         Cu24   2.072       .  S
O22          C25   1.288       .  A
Cu23        Cu24   2.367       .  S
C25         C350   1.492       .  S
C26         C360   1.478   1_455  S
C27         C340   1.476       .  S
C28         C393   1.488       .  S
O29         Cu37   1.963       .  S
O29          C39   1.270       .  A
O30         Cu37   1.953       .  S
O30          C40   1.267       .  A
O31         Cu37   2.063       .  S
O31          C41   1.286       .  A
O32         Cu37   2.078       .  S
O32          C42   1.289       .  A
O33         Cu38   1.977       .  S
O33          C42   1.271       .  A
O34         Cu38   1.961       .  S
O34          C41   1.270       .  A
O35         Cu38   2.047       .  S
O35          C40   1.285       .  A
O36         Cu38   2.059       .  S
O36          C39   1.286       .  A
Cu37        Cu38   2.364       .  S
C39         C373   1.498       .  S
C40         C380   1.465       .  S
C41         C333   1.491       .  S
C42         C323   1.493       .  S
O43         Cu51   1.971       .  S
O43         C461   1.270       .  A
O44         Cu51   1.948       .  S
O44         C462   1.267       .  A
O45         Cu51   2.087       .  S
O45         C463   1.290       .  A
O46        Cu459   2.092       .  S
O46          C56   1.290   1_565  A
O47         Cu52   1.960       .  S
O47          C56   1.268       .  A
O48         Cu52   1.939       .  S
O48          C55   1.266   1_545  A
O49         Cu52   2.079       .  S
O49          C54   1.289   1_545  A
O50         Cu52   2.077       .  S
O50          C53   1.288       .  A
Cu51        O454   2.092       .  S
Cu51       Cu460   2.358       .  S
Cu52       Cu459   2.358   1_545  S
C53         O451   1.270   1_545  A
C53         C353   1.503   1_545  S
C54         O452   1.267       .  A
C54         C363   1.489       .  S
C55         O453   1.290       .  A
C55         C721   1.499       .  S
C56         C320   1.505       .  S
O57         Cu65   1.963       .  S
O57          C67   1.270       .  A
O58         Cu65   1.951       .  S
O58          C68   1.267   1_545  A
O59         Cu65   2.066       .  S
O59          C69   1.288   1_545  A
O60         Cu65   2.065       .  S
O60          C70   1.286   1_545  A
O61         Cu66   1.992       .  S
O61         C478   1.272       .  A
O62         Cu66   1.955       .  S
O62         C477   1.267       .  A
O63         Cu66   2.065       .  S
O63         C476   1.287       .  A
O64        Cu474   2.079       .  S
O64          C67   1.288   1_565  A
Cu65       Cu474   2.366   1_545  S
Cu66        O472   2.079       .  S
Cu66       Cu473   2.365       .  S
C67         C300   1.503       .  S
C68         O471   1.287       .  A
C68         C751   1.477       .  S
C69         O470   1.267       .  A
C69         C283   1.483       .  S
C70         O469   1.272       .  A
C70         C290   1.488       .  S
O71         Cu79   1.965       .  S
O71          C81   1.270       .  A
O72         Cu79   1.971       .  S
O72          C82   1.270       .  A
O73         Cu79   2.066       .  S
O73          C83   1.287       .  A
O74         Cu79   2.052       .  S
O74          C84   1.285       .  A
O75         Cu80   1.961       .  S
O75          C84   1.268       .  A
O76         Cu80   1.973       .  S
O76          C83   1.271       .  A
O77         Cu80   2.070       .  S
O77          C82   1.287       .  A
O78         Cu80   2.053       .  S
O78          C81   1.286       .  A
Cu79        Cu80   2.369       .  S
C81         C250   1.482       .  S
C82         C303   1.483       .  S
C83         C270   1.495       .  S
C84         C260   1.470       .  S
O85         Cu93   1.962       .  S
O85          C95   1.266       .  A
O86         Cu93   1.972       .  S
O86          C96   1.269       .  A
O87         Cu93   2.057       .  S
O87          C97   1.286       .  A
O88         Cu93   2.057       .  S
O88          C98   1.286       .  A
O89         Cu94   1.964       .  S
O89          C98   1.270       .  A
O90         Cu94   1.968       .  S
O90          C97   1.269       .  A
O91         Cu94   2.078       .  S
O91          C96   1.289       .  A
O92         Cu94   2.064       .  S
O92          C95   1.288       .  A
Cu93        Cu94   2.362       .  S
C95         C280   1.496       .  S
C96         C293   1.494       .  S
C97         C240   1.477       .  S
C98         C310   1.494       .  S
O99        Cu107   1.932       .  S
O99         C109   1.264       .  A
O100       Cu107   1.944       .  S
O100        C110   1.264       .  A
O101       Cu107   2.064       .  S
O101        C111   1.286       .  A
O102       Cu107   2.077       .  S
O102        C112   1.288       .  A
O103       Cu108   1.941       .  S
O103        C112   1.266       .  A
O104       Cu108   1.972       .  S
O104        C111   1.271       .  A
O105       Cu108   2.081       .  S
O105        C110   1.289       .  A
O106       Cu108   2.068       .  S
O106        C109   1.287       .  A
Cu107      Cu108   2.361       .  S
C109        C233   1.466       .  S
C110        C243   1.497       .  S
C111        C273   1.502       .  S
C112        C263   1.482       .  S
O113       Cu121   1.973       .  S
O113        C123   1.270       .  A
O114       Cu121   1.950       .  S
O114        C124   1.266       .  A
O115       Cu121   2.061       .  S
O115        C125   1.286       .  A
O116       Cu121   2.076       .  S
O116        C126   1.288       .  A
O117       Cu122   1.952       .  S
O117        C126   1.268       .  A
O118       Cu122   1.949       .  S
O118        C125   1.267       .  A
O119       Cu122   2.060       .  S
O119        C124   1.287       .  A
O120       Cu122   2.068       .  S
O120        C123   1.287       .  A
Cu121      Cu122   2.369       .  S
C123        C203   1.489       .  S
C124        C210   1.474       .  S
C125        C230   1.469       .  S
C126        C220   1.491       .  S
O127       Cu135   1.944       .  S
O127        C137   1.267       .  A
O128       Cu135   1.967       .  S
O128        C138   1.269       .  A
O129       Cu135   2.080       .  S
O129        C139   1.289       .  A
O130       Cu135   2.069       .  S
O130        C140   1.287       .  A
O131       Cu136   1.931       .  S
O131        C140   1.266       .  A
O132       Cu136   1.949       .  S
O132        C139   1.267       .  A
O133       Cu136   2.067       .  S
O133        C138   1.287       .  A
O134       Cu136   2.062       .  S
O134        C137   1.286       .  A
Cu135      Cu136   2.365       .  S
C137        C400   1.476       .  S
C138        C223   1.487       .  S
C139        C183   1.492       .  S
C140        C190   1.491       .  S
O141       Cu149   1.945       .  S
O141        C151   1.265       .  A
O142       Cu149   1.963       .  S
O142        C152   1.269       .  A
O143       Cu149   2.073       .  S
O143        C153   1.288       .  A
O144       Cu149   2.062       .  S
O144        C154   1.286       .  A
O145       Cu150   1.959       .  S
O145        C154   1.269       .  A
O146       Cu150   1.977       .  S
O146        C153   1.271       .  A
O147       Cu150   2.071       .  S
O147        C152   1.288       .  A
O148       Cu150   2.073       .  S
O148        C151   1.288       .  A
Cu149      Cu150   2.360       .  S
C151        C213   1.488       .  S
C152        C200   1.500       .  S
C153        C173   1.503       .  S
C154        C253   1.483       .  S
O155       Cu163   1.966       .  S
O155        C981   1.270       .  A
O156       Cu163   1.941       .  S
O156        C982   1.267       .  A
O157       Cu163   2.069       .  S
O157        C167   1.288       .  A
O158       Cu163   2.078       .  S
O158        C984   1.288       .  A
O159       Cu164   1.974       .  S
O159        C168   1.270       .  A
O160       Cu164   1.952       .  S
O160        C983   1.268   1_455  A
O161       Cu164   2.057       .  S
O161        C166   1.286   1_455  A
O162       Cu164   2.065       .  S
O162        C165   1.287   1_455  A
Cu163      Cu980   2.363       .  S
Cu164      Cu979   2.363   1_455  S
C165        O971   1.270       .  A
C165        C996   1.500       .  S
C166        O972   1.267       .  A
C166       C1009   1.481       .  S
C167        O976   1.268       .  A
C167        C330   1.492       .  S
C168        O974   1.288   1_455  A
C168        C170   1.492       .  S
C169        C170   1.411       .  A
C169        C174   1.406       .  A
C169        H176   1.084       .  S
C170        C171   1.404       .  A
C171        C172   1.406   1_554  A
C171       Br994   1.917   1_455  S
C172        C173   1.418       .  A
C172        H177   1.083       .  S
C173        C174   1.412   1_556  A
C174       Br175   1.920       .  S
Br178       C987   1.917       .  S
C179        C180   1.418       .  A
C179        C184   1.404       .  A
C179        H186   1.083       .  S
C180        C981   1.500       .  S
C180        C997   1.411       .  A
C181        C996   1.411   1_455  A
C181        C998   1.401       .  A
C181       Br188   1.921       .  S
C182        C183   1.413       .  A
C182        C997   1.401       .  A
C182       H1003   1.084       .  S
C183        C184   1.404       .  A
C184       Br185   1.918       .  S
H187        C998   1.084       .  S
C189       C1006   1.417   1_455  A
C189        C602   1.394       .  A
C189        H196   1.083       .  S
C190        C191   1.407       .  A
C190       C1005   1.417       .  A
C191        C600   1.401       .  A
C191       Br198   1.920       .  S
C192        C193   1.415       .  A
C192        C599   1.401   1_545  A
C192        H197   1.083       .  S
C193        C982   1.481       .  S
C193       C1010   1.401       .  A
C194        C597   1.394       .  A
C194       C1009   1.402   1_455  A
C194       Br195   1.921       .  S
C199        C200   1.418       .  A
C199        C204   1.404       .  A
C199        H206   1.083       .  S
C200        C201   1.412       .  A
C201        C202   1.403       .  A
C201       Br208   1.920       .  S
C202        C203   1.410       .  A
C202        H207   1.084       .  S
C203        C204   1.404       .  A
C204       Br205   1.919       .  S
C209        C210   1.394       .  A
C209       C1438   1.396       .  A
C209       H1032   1.084       .  S
C210        C211   1.416       .  A
C211        C620   1.403       .  A
C211       Br218   1.921       .  S
C212        C619   1.403   1_545  A
C212       C1029   1.403       .  A
C212        H217   1.083       .  S
C213        C214   1.424   1_545  A
C213       C1028   1.403   1_455  A
C214       C1433   1.396   1_455  A
C214       Br215   1.926   1_565  S
H216       C1025   1.084       .  S
C219        C220   1.415       .  A
C219        C224   1.400   1_556  A
C219        H226   1.083       .  S
C220        C221   1.406       .  A
C221        C222   1.405   1_556  A
C221       Br228   1.918       .  S
C222        C223   1.414       .  A
C222        H227   1.083       .  S
C223        C224   1.403       .  A
C224       Br225   1.919       .  S
C229        C230   1.399       .  A
C229        C234   1.402       .  A
C229        H236   1.083       .  S
C230        C231   1.413       .  A
C231        C232   1.397       .  A
C231       Br238   1.920       .  S
C232        C233   1.398       .  A
C232        H237   1.083       .  S
C233        C234   1.414       .  A
C234       Br235   1.920       .  S
C239        C240   1.390       .  A
C239        C244   1.397       .  A
C239        H246   1.083       .  S
C240        C241   1.415       .  A
C241        C242   1.406       .  A
C241       Br248   1.921       .  S
C242        C243   1.405       .  A
C242        H247   1.082       .  S
C243        C244   1.431       .  A
C244       Br245   1.927       .  S
C249        C250   1.410       .  A
C249        C254   1.400       .  A
C249        H256   1.084       .  S
C250        C251   1.406       .  A
C251        C252   1.401       .  A
C251       Br258   1.920       .  S
C252        C253   1.412       .  A
C252        H257   1.084       .  S
C253        C254   1.407       .  A
C254       Br255   1.919       .  S
C259        C668   1.395       .  A
C259       C1080   1.395   1_455  A
C259        H266   1.084       .  S
C260        C667   1.395   1_545  A
C260       C1077   1.413   1_445  A
C261        C262   1.405       .  A
C261       C1076   1.413   1_565  A
C261      Br1084   1.919   1_565  S
C262        C671   1.403       .  A
C262        H267   1.083       .  S
C263        C264   1.420       .  A
C263        C670   1.403       .  A
C264       C1075   1.395       .  A
C264       Br265   1.925       .  S
Br268      C1077   1.919   1_445  S
C269        C270   1.413       .  A
C269        C274   1.404       .  A
C269        H276   1.083       .  S
C270        C271   1.406       .  A
C271        C272   1.403       .  A
C271       Br278   1.919       .  S
C272        C273   1.417       .  A
C272        H277   1.083       .  S
C273        C274   1.412       .  A
C274       Br275   1.920       .  S
C279        C280   1.402       .  A
C279        C284   1.400       .  A
C279        H286   1.083       .  S
C280        C689   1.428       .  A
C281        C688   1.428   1_545  A
C281       C1098   1.400       .  A
C281       Br288   1.925       .  S
C282        C283   1.395   1_545  A
C282       C1097   1.400   1_455  A
C282        H287   1.083       .  S
C283       C1508   1.418   1_455  A
C284       C1507   1.418       .  A
C284      Br1101   1.923       .  S
Br285      C1100   1.922       .  S
C289        C290   1.400       .  A
C289        C294   1.407       .  A
C289        H296   1.084   1_565  S
C290        C699   1.415       .  A
C291        C292   1.405       .  A
C291        C698   1.416       .  A
C291       Br298   1.920       .  S
C292        C293   1.402       .  A
C292        H297   1.084       .  S
C293        C702   1.421       .  A
C294        C701   1.421       .  A
C294       Br295   1.922   1_565  S
C299        C300   1.419       .  A
C299        C304   1.401       .  A
C299        H306   1.083       .  S
C300        C301   1.413   1_545  A
C301        C302   1.408   1_565  A
C301       Br308   1.918       .  S
C302        C303   1.410       .  A
C302        H307   1.083       .  S
C303        C304   1.400       .  A
C304       Br305   1.918       .  S
C309        C310   1.416       .  A
C309        C314   1.404       .  A
C309        H316   1.083       .  S
C310        C311   1.407       .  A
C311        C312   1.398       .  A
C311       Br318   1.922       .  S
C312        C313   1.418       .  A
C312        H725   1.083       .  S
C313        C463   1.498       .  S
C313        C314   1.407       .  A
C314       Br315   1.918       .  S
H317        C720   1.083       .  S
C319        C320   1.419       .  A
C319        C324   1.404       .  A
C319        H326   1.082       .  S
C320        C321   1.410       .  A
C321        C322   1.409       .  A
C321       Br736   1.918   1_545  S
C322        C323   1.414       .  A
C322        H327   1.083       .  S
C323        C324   1.403       .  A
C324       Br325   1.919       .  S
Br328       C729   1.918       .  S
C329        C330   1.415       .  A
C329        C334   1.400       .  A
C329        H336   1.084       .  S
C330       C1147   1.406       .  A
C331        C332   1.401       .  A
C331       C1146   1.406       .  A
C331       Br338   1.919       .  S
C332       C1149   1.415       .  A
C332        H337   1.084       .  S
C333        C334   1.408       .  A
C333       C1148   1.415       .  A
C334       Br335   1.920       .  S
C339        C340   1.400       .  A
C339        C344   1.403       .  A
C339        H346   1.084       .  S
C340        C341   1.414       .  A
C341        C342   1.400       .  A
C341       Br348   1.922       .  S
C342        C343   1.400       .  A
C342        H347   1.083       .  S
C343        C476   1.477       .  S
C343        C344   1.415       .  A
C344       Br753   1.920       .  S
Br345       C752   1.920   1_545  S
C349        C354   1.406       .  A
C349        C758   1.411   1_545  A
C349        H356   1.083       .  S
C350        C351   1.405       .  A
C350        C757   1.411       .  A
C351        C352   1.405       .  A
C351       Br358   1.919       .  S
C352        C761   1.417       .  A
C352        H357   1.083       .  S
C353        C354   1.412   1_565  A
C353        C760   1.417       .  A
C354       Br355   1.919       .  S
C359        C768   1.410       .  A
C359       C1180   1.405   1_565  A
C359        H366   1.084   1_665  S
C360        C767   1.410       .  A
C360       C1177   1.404       .  A
C361        C362   1.398       .  A
C361       C1176   1.404       .  A
C361       Br368   1.920       .  S
C362        C771   1.412       .  A
C362        H367   1.084       .  S
C363        C364   1.408   1_565  A
C363        C770   1.413       .  A
C364       C1175   1.405   1_545  A
C364      Br1181   1.918       .  S
Br365      C1180   1.918       .  S
C369        C370   1.412       .  A
C369        C374   1.402       .  A
C369        H376   1.084       .  S
C370        C830   1.489       .  S
C370       C1187   1.404       .  A
C371        C372   1.401   1_455  A
C371       C1186   1.404   1_455  A
C371       Br378   1.917       .  S
C372       C1189   1.417       .  A
C372        H377   1.083   1_655  S
C373        C374   1.412       .  A
C373       C1188   1.417       .  A
C374       Br375   1.921       .  S
C379        C384   1.392       .  A
C379        C788   1.393       .  A
C379        H386   1.085       .  S
C380        C787   1.393   1_545  A
C380       C1197   1.413       .  A
C381        C382   1.402   1_645  A
C381       C1196   1.413       .  A
C381       Br388   1.917   1_655  S
C382       C1607   1.400   1_455  A
C382        H387   1.084       .  S
C383        C829   1.475       .  S
C383        C384   1.421       .  A
C383       C1606   1.400       .  A
C384       Br385   1.926       .  S
C389        C390   1.409       .  A
C389        C394   1.413       .  A
C389        H396   1.083   1_455  S
C390        C391   1.405       .  A
C391        C392   1.394       .  A
C391      Br1214   1.917       .  S
C392        C393   1.406       .  A
C392        H397   1.084       .  S
C393        C394   1.413       .  A
C394       Br395   1.917       .  S
Br398      C1207   1.917       .  S
C399        C400   1.409       .  A
C399        C404   1.396       .  A
C399        H406   1.085       .  S
C400       C1217   1.404       .  A
C401        C402   1.402       .  A
C401       C1216   1.404   1_455  A
C401       Br408   1.918       .  S
C402       C1219   1.412   1_455  A
C402        H407   1.084       .  S
C403        C404   1.405       .  A
C403       C1218   1.411       .  A
C404       Br405   1.921       .  S
O409       Cu417   1.962       .  S
O409        C419   1.269       .  A
O410       Cu417   1.956       .  S
O410       C1236   1.268   1_455  A
O411       Cu417   2.070       .  S
O411        C421   1.288   1_455  A
O412       Cu417   2.070       .  S
O412        C422   1.288   1_455  A
O413       Cu418   1.960       .  S
O413       C1238   1.269       .  A
O414       Cu418   1.923       .  S
O414       C1237   1.263       .  A
O415       Cu418   2.056       .  S
O415        C420   1.286       .  A
O416       Cu418   2.071       .  S
O416       C1235   1.287       .  A
Cu417     Cu1234   2.369   1_455  S
Cu418     Cu1233   2.369       .  S
C419       O1232   1.287   1_455  A
C419        C798   1.479       .  S
C420       O1226   1.268       .  A
C420        C811   1.477       .  S
C421       O1230   1.263       .  A
C421       C1607   1.475       .  S
C422       O1229   1.269       .  A
C422       C1594   1.489       .  S
O423       Cu431   1.979   1_545  S
O423        C433   1.271   1_545  A
O424       Cu431   1.960       .  S
O424        C434   1.268       .  A
O425       Cu431   2.069   1_545  S
O425        C435   1.287   1_545  A
O426       Cu431   2.086       .  S
O426        C436   1.289       .  A
O427       Cu432   1.947       .  S
O427        C436   1.268       .  A
O428       Cu432   1.953       .  S
O428        C435   1.267       .  A
O429       Cu432   2.064       .  S
O429        C434   1.287       .  A
O430       Cu432   2.071       .  S
O430        C433   1.288       .  A
Cu431      Cu432   2.367       .  S
C433        C758   1.492       .  S
C434        C768   1.478   1_455  S
C435        C748   1.476       .  S
C436        C801   1.488       .  S
O437       Cu445   1.963       .  S
O437        C447   1.270       .  A
O438       Cu445   1.953       .  S
O438        C448   1.267       .  A
O439       Cu445   2.063       .  S
O439        C449   1.286       .  A
O440       Cu445   2.078       .  S
O440        C450   1.289       .  A
O441       Cu446   1.977       .  S
O441        C450   1.271       .  A
O442       Cu446   1.961       .  S
O442        C449   1.270       .  A
O443       Cu446   2.047       .  S
O443        C448   1.285       .  A
O444       Cu446   2.059       .  S
O444        C447   1.286       .  A
Cu445      Cu446   2.364       .  S
C447        C781   1.498       .  S
C448        C788   1.465       .  S
C449        C741   1.491       .  S
C450        C731   1.493       .  S
O451       Cu459   1.971       .  S
O452       Cu459   1.947       .  S
O453       Cu459   2.086       .  S
O454        C464   1.291       .  A
O455       Cu460   1.959       .  S
O455        C464   1.268       .  A
O456       Cu460   1.937       .  S
O456        C463   1.266       .  A
O457       Cu460   2.080       .  S
O457        C462   1.289       .  A
O458       Cu460   2.078       .  S
O458        C461   1.289       .  A
C461        C761   1.503       .  S
C462        C771   1.489       .  S
C464        C728   1.505       .  S
O465       Cu473   1.964       .  S
O465        C475   1.270       .  A
O466       Cu473   1.951       .  S
O466        C476   1.267       .  A
O467       Cu473   2.067       .  S
O467        C477   1.288       .  A
O468       Cu473   2.066       .  S
O468        C478   1.286       .  A
O469       Cu474   1.992       .  S
O470       Cu474   1.956       .  S
O471       Cu474   2.065       .  S
O472        C475   1.288       .  A
C475        C708   1.503       .  S
C477        C691   1.483       .  S
C478        C698   1.488       .  S
O479       Cu487   1.965       .  S
O479        C489   1.270       .  A
O480       Cu487   1.971       .  S
O480        C490   1.270       .  A
O481       Cu487   2.066       .  S
O481        C491   1.287       .  A
O482       Cu487   2.052       .  S
O482        C492   1.285       .  A
O483       Cu488   1.961       .  S
O483        C492   1.268       .  A
O484       Cu488   1.973       .  S
O484        C491   1.271       .  A
O485       Cu488   2.070       .  S
O485        C490   1.287       .  A
O486       Cu488   2.054       .  S
O486        C489   1.286       .  A
Cu487      Cu488   2.369       .  S
C489        C658   1.482       .  S
C490        C711   1.483       .  S
C491        C678   1.495       .  S
C492        C668   1.470       .  S
O493       Cu501   1.961       .  S
O493        C503   1.266       .  A
O494       Cu501   1.972       .  S
O494        C504   1.269       .  A
O495       Cu501   2.057       .  S
O495        C505   1.286       .  A
O496       Cu501   2.057       .  S
O496        C506   1.286       .  A
O497       Cu502   1.965       .  S
O497        C506   1.270       .  A
O498       Cu502   1.967       .  S
O498        C505   1.269       .  A
O499       Cu502   2.077       .  S
O499        C504   1.289       .  A
O500       Cu502   2.063       .  S
O500        C503   1.288       .  A
Cu501      Cu502   2.362       .  S
C503        C688   1.495       .  S
C504        C701   1.494       .  S
C505        C648   1.476       .  S
C506        C718   1.495       .  S
O507       Cu515   1.931       .  S
O507        C517   1.264       .  A
O508       Cu515   1.943       .  S
O508        C518   1.263       .  A
O509       Cu515   2.065       .  S
O509        C519   1.286       .  A
O510       Cu515   2.077       .  S
O510        C520   1.288       .  A
O511       Cu516   1.941       .  S
O511        C520   1.266       .  A
O512       Cu516   1.972       .  S
O512        C519   1.271       .  A
O513       Cu516   2.080       .  S
O513        C518   1.289       .  A
O514       Cu516   2.067       .  S
O514        C517   1.287       .  A
Cu515      Cu516   2.361       .  S
C517        C641   1.465       .  S
C518        C651   1.497       .  S
C519        C681   1.502       .  S
C520        C671   1.482       .  S
O521       Cu529   1.973       .  S
O521        C531   1.270       .  A
O522       Cu529   1.950       .  S
O522        C532   1.266       .  A
O523       Cu529   2.061       .  S
O523        C533   1.286       .  A
O524       Cu529   2.076       .  S
O524        C534   1.288       .  A
O525       Cu530   1.951       .  S
O525        C534   1.268       .  A
O526       Cu530   1.949       .  S
O526        C533   1.266       .  A
O527       Cu530   2.060       .  S
O527        C532   1.287       .  A
O528       Cu530   2.068       .  S
O528        C531   1.287       .  A
Cu529      Cu530   2.369       .  S
C531        C611   1.489       .  S
C532        C618   1.474       .  S
C533        C638   1.469       .  S
C534        C628   1.491       .  S
O535       Cu543   1.944       .  S
O535        C545   1.267       .  A
O536       Cu543   1.967       .  S
O536        C546   1.269       .  A
O537       Cu543   2.080       .  S
O537        C547   1.289       .  A
O538       Cu543   2.069       .  S
O538        C548   1.287       .  A
O539       Cu544   1.931       .  S
O539        C548   1.266       .  A
O540       Cu544   1.949       .  S
O540        C547   1.267       .  A
O541       Cu544   2.067       .  S
O541        C546   1.287       .  A
O542       Cu544   2.062       .  S
O542        C545   1.286       .  A
Cu543      Cu544   2.365       .  S
C545        C808   1.476       .  S
C546        C631   1.487       .  S
C547        C591   1.491       .  S
C548        C598   1.491       .  S
O549       Cu557   1.945       .  S
O549        C559   1.265       .  A
O550       Cu557   1.963       .  S
O550        C560   1.269       .  A
O551       Cu557   2.074       .  S
O551        C561   1.288       .  A
O552       Cu557   2.062       .  S
O552        C562   1.286       .  A
O553       Cu558   1.959       .  S
O553        C562   1.269       .  A
O554       Cu558   1.977       .  S
O554        C561   1.271       .  A
O555       Cu558   2.071       .  S
O555        C560   1.288       .  A
O556       Cu558   2.073       .  S
O556        C559   1.288       .  A
Cu557      Cu558   2.360       .  S
C559        C621   1.488       .  S
C560        C608   1.500       .  S
C561        C581   1.504       .  S
C562        C661   1.483       .  S
O563       Cu571   1.966       .  S
O563       C1389   1.270       .  A
O564       Cu571   1.941       .  S
O564       C1390   1.267       .  A
O565       Cu571   2.069       .  S
O565        C575   1.288       .  A
O566       Cu571   2.079       .  S
O566       C1392   1.288       .  A
O567       Cu572   1.975       .  S
O567        C576   1.270       .  A
O568       Cu572   1.952       .  S
O568       C1391   1.268   1_455  A
O569       Cu572   2.057       .  S
O569        C574   1.286   1_455  A
O570       Cu572   2.066       .  S
O570        C573   1.287   1_455  A
Cu571     Cu1388   2.363       .  S
Cu572     Cu1387   2.363   1_455  S
C573       O1379   1.270       .  A
C573       C1404   1.500       .  S
C574       O1380   1.267       .  A
C574       C1417   1.481       .  S
C575       O1384   1.268       .  A
C575        C738   1.492       .  S
C576       O1382   1.288   1_455  A
C576        C578   1.492       .  S
C577        C578   1.411       .  A
C577        C582   1.406       .  A
C577        H584   1.084       .  S
C578        C579   1.404       .  A
C579        C580   1.406   1_554  A
C579      Br1402   1.917   1_455  S
C580        C581   1.418       .  A
C580        H585   1.083       .  S
C581        C582   1.412   1_556  A
C582       Br583   1.920       .  S
Br586      C1395   1.917       .  S
C587        C588   1.418       .  A
C587        C592   1.404       .  A
C587        H594   1.083       .  S
C588       C1389   1.500       .  S
C588       C1405   1.411       .  A
C589       C1404   1.411   1_455  A
C589       C1406   1.401       .  A
C589       Br596   1.921       .  S
C590       C1405   1.401       .  A
C590        C591   1.413       .  A
C590       H1411   1.084       .  S
C591        C592   1.404       .  A
C592       Br593   1.918       .  S
H595       C1406   1.084       .  S
C597       C1414   1.417   1_445  A
C597        H604   1.083       .  S
C598       C1413   1.417   1_565  A
C598        C599   1.407       .  A
C599       Br606   1.920       .  S
C600        C601   1.415       .  A
C600        H605   1.083       .  S
C601       C1390   1.481       .  S
C601       C1418   1.402       .  A
C602       C1417   1.402   1_455  A
C602       Br603   1.921       .  S
C607        C608   1.418       .  A
C607        C612   1.404       .  A
C607        H614   1.083       .  S
C608        C609   1.412       .  A
C609        C610   1.403       .  A
C609       Br616   1.920       .  S
C610        C611   1.410       .  A
C610        H615   1.084       .  S
C611        C612   1.404       .  A
C612       Br613   1.919       .  S
C617        C618   1.393       .  A
C617       C1030   1.396       .  A
C617       H1440   1.084       .  S
C618        C619   1.416       .  A
C619       Br626   1.921       .  S
C620       C1437   1.403       .  A
C620        H625   1.083       .  S
C621       C1436   1.403   1_455  A
C621        C622   1.424       .  A
C622       C1025   1.396   1_455  A
C622       Br623   1.926       .  S
H624       C1433   1.084       .  S
C627        C628   1.415       .  A
C627        C632   1.400   1_556  A
C627        H634   1.083       .  S
C628        C629   1.406       .  A
C629        C630   1.405   1_556  A
C629       Br636   1.918       .  S
C630        C631   1.414       .  A
C630        H635   1.083       .  S
C631        C632   1.403       .  A
C632       Br633   1.919       .  S
C637        C638   1.399       .  A
C637        C642   1.402       .  A
C637        H644   1.083       .  S
C638        C639   1.413       .  A
C639        C640   1.397       .  A
C639       Br646   1.920       .  S
C640        C641   1.398       .  A
C640        H645   1.083       .  S
C641        C642   1.414       .  A
C642       Br643   1.920       .  S
C647        C648   1.390       .  A
C647        C652   1.397       .  A
C647        H654   1.083       .  S
C648        C649   1.415       .  A
C649        C650   1.406       .  A
C649       Br656   1.920       .  S
C650        C651   1.405       .  A
C650        H655   1.082       .  S
C651        C652   1.431       .  A
C652       Br653   1.927       .  S
C657        C658   1.410       .  A
C657        C662   1.400       .  A
C657        H664   1.084       .  S
C658        C659   1.406       .  A
C659        C660   1.401       .  A
C659       Br666   1.920       .  S
C660        C661   1.412       .  A
C660        H665   1.084       .  S
C661        C662   1.407       .  A
C662       Br663   1.919       .  S
C667       C1488   1.395   1_455  A
C667        H674   1.084       .  S
C668       C1485   1.413   1_455  A
C669       C1484   1.413       .  A
C669        C670   1.405       .  A
C669      Br1492   1.919       .  S
C670        H675   1.083       .  S
C671        C672   1.420       .  A
C672       C1483   1.395       .  A
C672       Br673   1.925       .  S
Br676      C1485   1.919   1_455  S
C677        C678   1.413       .  A
C677        C682   1.404       .  A
C677        H684   1.083       .  S
C678        C679   1.406       .  A
C679        C680   1.403       .  A
C679       Br686   1.919       .  S
C680        C681   1.417       .  A
C680        H685   1.083       .  S
C681        C682   1.412       .  A
C682       Br683   1.920       .  S
C687        C688   1.402       .  A
C687        C692   1.400       .  A
C687        H694   1.083       .  S
C689       C1506   1.401       .  A
C689       Br696   1.925       .  S
C690       C1505   1.401   1_455  A
C690        C691   1.395       .  A
C690        H695   1.083       .  S
C691       C1100   1.418   1_455  A
C692       C1099   1.418       .  A
C692      Br1509   1.922       .  S
Br693      C1508   1.922       .  S
C697        C698   1.400       .  A
C697        C702   1.407       .  A
C697        H704   1.084       .  S
C699        C700   1.405       .  A
C699       Br706   1.920       .  S
C700        C701   1.402       .  A
C700        H705   1.084       .  S
C702       Br703   1.922       .  S
C707        C708   1.419       .  A
C707        C712   1.401       .  A
C707        H714   1.083       .  S
C708        C709   1.413       .  A
C709        C710   1.408       .  A
C709       Br716   1.918       .  S
C710        C711   1.410       .  A
C710        H715   1.083       .  S
C711        C712   1.400       .  A
C712       Br713   1.918       .  S
C717        C718   1.416       .  A
C717        C722   1.404       .  A
C717        H724   1.083       .  S
C718        C719   1.408   1_565  A
C719        C720   1.398       .  A
C719       Br726   1.922       .  S
C720        C721   1.417   1_545  A
C721        C722   1.408       .  A
C722       Br723   1.918       .  S
C727        C728   1.419       .  A
C727        C732   1.404       .  A
C727        H734   1.082       .  S
C728        C729   1.410       .  A
C729        C730   1.409       .  A
C730        C731   1.414       .  A
C730        H735   1.083       .  S
C731        C732   1.403       .  A
C732       Br733   1.919       .  S
C737        C738   1.415       .  A
C737        C742   1.400       .  A
C737        H744   1.084       .  S
C738       C1555   1.406       .  A
C739       C1554   1.406       .  A
C739        C740   1.401       .  A
C739       Br746   1.919       .  S
C740       C1557   1.415       .  A
C740        H745   1.084       .  S
C741       C1556   1.415       .  A
C741        C742   1.408       .  A
C742       Br743   1.920       .  S
C747        C748   1.400       .  A
C747        C752   1.402       .  A
C747        H754   1.084   1_565  S
C748        C749   1.414       .  A
C749        C750   1.400       .  A
C749       Br756   1.922       .  S
C750        C751   1.400       .  A
C750        H755   1.083       .  S
C751        C752   1.415       .  A
C757        C762   1.406       .  A
C757        H764   1.083       .  S
C758        C759   1.405       .  A
C759        C760   1.405       .  A
C759       Br766   1.919       .  S
C760        H765   1.083       .  S
C761        C762   1.412       .  A
C762       Br763   1.919       .  S
C767       C1588   1.405       .  A
C767        H774   1.084   1_655  S
C768       C1585   1.404       .  A
C769       C1584   1.404       .  A
C769        C770   1.398       .  A
C769       Br776   1.920       .  S
C770        H775   1.084       .  S
C771        C772   1.408       .  A
C772       C1583   1.405       .  A
C772      Br1589   1.918       .  S
Br773      C1588   1.918       .  S
C777        C778   1.412       .  A
C777        C782   1.402       .  A
C777        H784   1.084       .  S
C778       C1238   1.489       .  S
C778       C1595   1.404       .  A
C779       C1594   1.404   1_455  A
C779        C780   1.401   1_455  A
C779       Br786   1.917       .  S
C780       C1597   1.417       .  A
C780        H785   1.083   1_655  S
C781       C1596   1.417       .  A
C781        C782   1.412       .  A
C782       Br783   1.921       .  S
C787        C792   1.392       .  A
C787        H794   1.085       .  S
C788       C1605   1.413       .  A
C789       C1604   1.413       .  A
C789        C790   1.402   1_655  A
C789       Br796   1.917   1_655  S
C790       C1199   1.400   1_455  A
C790        H795   1.084       .  S
C791       C1237   1.475       .  S
C791       C1198   1.400       .  A
C791        C792   1.420       .  A
C792       Br793   1.926       .  S
C797        C798   1.409       .  A
C797        C802   1.413       .  A
C797        H804   1.083   1_455  S
C798        C799   1.405       .  A
C799        C800   1.394       .  A
C799      Br1622   1.917       .  S
C800        C801   1.407       .  A
C800        H805   1.084       .  S
C801        C802   1.413       .  A
C802       Br803   1.917       .  S
Br806      C1615   1.917       .  S
C807        C808   1.409       .  A
C807        C812   1.396       .  A
C807        H814   1.085       .  S
C808       C1625   1.404       .  A
C809       C1624   1.404   1_455  A
C809        C810   1.402       .  A
C809       Br816   1.918       .  S
C810       C1627   1.411   1_455  A
C810        H815   1.084       .  S
C811       C1626   1.411       .  A
C811        C812   1.405       .  A
C812       Br813   1.921       .  S
O817       Cu825   1.962       .  S
O817        C827   1.269       .  A
O818       Cu825   1.956       .  S
O819       Cu825   2.070       .  S
O819        C829   1.288       .  A
O820       Cu825   2.070       .  S
O820        C830   1.288       .  A
O821       Cu826   1.959       .  S
O822       Cu826   1.923       .  S
O823       Cu826   2.056       .  S
O823        C828   1.286       .  A
O824       Cu826   2.071       .  S
C827       C1206   1.479       .  S
C828       C1219   1.477       .  S
O831       Cu839   1.979       .  S
O831        C841   1.271       .  A
O832       Cu839   1.961       .  S
O832        C842   1.268       .  A
O833       Cu839   2.069       .  S
O833        C843   1.287       .  A
O834       Cu839   2.086       .  S
O834        C844   1.289       .  A
O835       Cu840   1.947       .  S
O835        C844   1.268       .  A
O836       Cu840   1.953       .  S
O836        C843   1.267       .  A
O837       Cu840   2.064       .  S
O837        C842   1.287       .  A
O838       Cu840   2.072       .  S
O838        C841   1.288       .  A
Cu839      Cu840   2.367       .  S
C841       C1166   1.492       .  S
C842       C1176   1.478       .  S
C843       C1156   1.476       .  S
C844       C1209   1.488       .  S
O845       Cu853   1.963       .  S
O845        C855   1.270       .  A
O846       Cu853   1.953       .  S
O846        C856   1.267       .  A
O847       Cu853   2.063       .  S
O847        C857   1.286       .  A
O848       Cu853   2.078       .  S
O848        C858   1.289       .  A
O849       Cu854   1.977       .  S
O849        C858   1.271       .  A
O850       Cu854   1.961       .  S
O850        C857   1.270       .  A
O851       Cu854   2.047       .  S
O851        C856   1.285       .  A
O852       Cu854   2.059       .  S
O852        C855   1.286       .  A
Cu853      Cu854   2.364       .  S
C855       C1189   1.498       .  S
C856       C1196   1.465       .  S
C857       C1149   1.491       .  S
C858       C1139   1.493       .  S
O859       Cu867   1.971       .  S
O859       C1277   1.270       .  A
O860       Cu867   1.947       .  S
O860       C1278   1.267       .  A
O861       Cu867   2.087       .  S
O861       C1279   1.290       .  A
O862      Cu1275   2.092       .  S
O862        C872   1.291   1_565  A
O863       Cu868   1.960       .  S
O863        C872   1.268       .  A
O864       Cu868   1.938       .  S
O864        C871   1.266   1_545  A
O865       Cu868   2.080       .  S
O865        C870   1.289   1_545  A
O866       Cu868   2.078       .  S
O866        C869   1.289       .  A
Cu867      O1270   2.092       .  S
Cu867     Cu1276   2.358       .  S
Cu868     Cu1275   2.358   1_545  S
C869       O1267   1.270   1_545  A
C869       C1169   1.503   1_545  S
C870       O1268   1.267       .  A
C870       C1179   1.488       .  S
C871       O1269   1.290       .  A
C871       C1537   1.499       .  S
C872       C1136   1.505       .  S
O873       Cu881   1.963       .  S
O873        C883   1.270       .  A
O874       Cu881   1.951       .  S
O874        C884   1.267   1_545  A
O875       Cu881   2.066       .  S
O875        C885   1.288   1_545  A
O876       Cu881   2.065       .  S
O876        C886   1.286   1_545  A
O877       Cu882   1.992       .  S
O877       C1294   1.272       .  A
O878       Cu882   1.955       .  S
O878       C1293   1.267       .  A
O879       Cu882   2.065       .  S
O879       C1292   1.287       .  A
O880      Cu1290   2.080       .  S
O880        C883   1.289   1_565  A
Cu881     Cu1290   2.366   1_545  S
Cu882      O1288   2.079       .  S
Cu882     Cu1289   2.365       .  S
C883       C1116   1.503       .  S
C884       O1287   1.287       .  A
C884       C1567   1.477       .  S
C885       O1286   1.267       .  A
C885       C1099   1.482       .  S
C886       O1285   1.272       .  A
C886       C1106   1.488       .  S
O887       Cu895   1.965       .  S
O887        C897   1.270       .  A
O888       Cu895   1.971       .  S
O888        C898   1.270       .  A
O889       Cu895   2.066       .  S
O889        C899   1.287       .  A
O890       Cu895   2.052       .  S
O890        C900   1.285       .  A
O891       Cu896   1.961       .  S
O891        C900   1.268       .  A
O892       Cu896   1.973       .  S
O892        C899   1.271       .  A
O893       Cu896   2.070       .  S
O893        C898   1.287       .  A
O894       Cu896   2.054       .  S
O894        C897   1.286       .  A
Cu895      Cu896   2.369       .  S
C897       C1066   1.482       .  S
C898       C1119   1.483       .  S
C899       C1086   1.495       .  S
C900       C1076   1.470       .  S
O901       Cu909   1.962       .  S
O901        C911   1.266       .  A
O902       Cu909   1.972       .  S
O902        C912   1.269       .  A
O903       Cu909   2.057       .  S
O903        C913   1.286       .  A
O904       Cu909   2.057       .  S
O904        C914   1.286       .  A
O905       Cu910   1.964       .  S
O905        C914   1.270       .  A
O906       Cu910   1.967       .  S
O906        C913   1.269       .  A
O907       Cu910   2.078       .  S
O907        C912   1.289       .  A
O908       Cu910   2.064       .  S
O908        C911   1.288       .  A
Cu909      Cu910   2.362       .  S
C911       C1096   1.495       .  S
C912       C1109   1.494       .  S
C913       C1056   1.477       .  S
C914       C1126   1.495       .  S
O915       Cu923   1.931       .  S
O915        C925   1.264       .  A
O916       Cu923   1.944       .  S
O916        C926   1.263       .  A
O917       Cu923   2.065       .  S
O917        C927   1.286       .  A
O918       Cu923   2.077       .  S
O918        C928   1.288       .  A
O919       Cu924   1.941       .  S
O919        C928   1.266       .  A
O920       Cu924   1.972       .  S
O920        C927   1.271       .  A
O921       Cu924   2.081       .  S
O921        C926   1.289       .  A
O922       Cu924   2.068       .  S
O922        C925   1.287       .  A
Cu923      Cu924   2.361       .  S
C925       C1049   1.466       .  S
C926       C1059   1.497       .  S
C927       C1089   1.502       .  S
C928       C1079   1.482       .  S
O929       Cu937   1.972       .  S
O929        C939   1.270       .  A
O930       Cu937   1.950       .  S
O930        C940   1.266       .  A
O931       Cu937   2.061       .  S
O931        C941   1.286       .  A
O932       Cu937   2.076       .  S
O932        C942   1.288       .  A
O933       Cu938   1.951       .  S
O933        C942   1.268       .  A
O934       Cu938   1.949       .  S
O934        C941   1.267       .  A
O935       Cu938   2.060       .  S
O935        C940   1.287       .  A
O936       Cu938   2.068       .  S
O936        C939   1.287       .  A
Cu937      Cu938   2.369       .  S
C939       C1019   1.489       .  S
C940       C1026   1.474       .  S
C941       C1046   1.469       .  S
C942       C1036   1.491       .  S
O943       Cu951   1.944       .  S
O943        C953   1.267       .  A
O944       Cu951   1.967       .  S
O944        C954   1.269       .  A
O945       Cu951   2.080       .  S
O945        C955   1.289       .  A
O946       Cu951   2.069       .  S
O946        C956   1.287       .  A
O947       Cu952   1.931       .  S
O947        C956   1.266       .  A
O948       Cu952   1.949       .  S
O948        C955   1.267       .  A
O949       Cu952   2.067       .  S
O949        C954   1.287       .  A
O950       Cu952   2.062   1_455  S
O950        C953   1.286   1_455  A
Cu951      Cu952   2.365       .  S
C953       C1216   1.476       .  S
C954       C1039   1.487       .  S
C955        C999   1.491       .  S
C956       C1006   1.490       .  S
O957       Cu965   1.945       .  S
O957        C967   1.265       .  A
O958       Cu965   1.963       .  S
O958        C968   1.269       .  A
O959       Cu965   2.073       .  S
O959        C969   1.288       .  A
O960       Cu965   2.062       .  S
O960        C970   1.286       .  A
O961       Cu966   1.959       .  S
O961        C970   1.269       .  A
O962       Cu966   1.977       .  S
O962        C969   1.271       .  A
O963       Cu966   2.071       .  S
O963        C968   1.288       .  A
O964       Cu966   2.073       .  S
O964        C967   1.288       .  A
Cu965      Cu966   2.360       .  S
C967       C1029   1.488       .  S
C968       C1016   1.500       .  S
C969        C989   1.503       .  S
C970       C1069   1.483       .  S
O971       Cu979   1.966       .  S
O972       Cu979   1.941       .  S
O973       Cu979   2.069       .  S
O973        C983   1.288       .  A
O974       Cu979   2.078       .  S
O975       Cu980   1.975       .  S
O975        C984   1.270       .  A
O976       Cu980   1.952       .  S
O977       Cu980   2.057       .  S
O977        C982   1.286       .  A
O978       Cu980   2.066       .  S
O978        C981   1.287       .  A
C983       C1146   1.492       .  S
C984        C986   1.492       .  S
C985        C986   1.411       .  A
C985        C990   1.406       .  A
C985        H992   1.084       .  S
C986        C987   1.404       .  A
C987        C988   1.406   1_554  A
C988        C989   1.418       .  A
C988        H993   1.083       .  S
C989        C990   1.412   1_556  A
C990       Br991   1.920       .  S
C995        C996   1.418       .  A
C995       C1000   1.404       .  A
C995       H1002   1.083       .  S
C997      Br1004   1.921       .  S
C998        C999   1.413   1_455  A
C999       C1000   1.404       .  A
C1000     Br1001   1.918       .  S
C1005      C1418   1.394       .  A
C1005      H1012   1.083       .  S
C1006      C1007   1.407       .  A
C1007      C1416   1.401       .  A
C1007     Br1014   1.920       .  S
C1008      C1415   1.401   1_545  A
C1008      C1009   1.415       .  A
C1008      H1013   1.083       .  S
C1010      C1413   1.394       .  A
C1010     Br1011   1.921       .  S
C1015      C1016   1.418       .  A
C1015      C1020   1.404       .  A
C1015      H1022   1.083       .  S
C1016      C1017   1.412       .  A
C1017      C1018   1.403       .  A
C1017     Br1024   1.920       .  S
C1018      C1019   1.410       .  A
C1018      H1023   1.084       .  S
C1019      C1020   1.404       .  A
C1020     Br1021   1.919       .  S
C1025      C1026   1.393       .  A
C1026      C1027   1.416       .  A
C1027      C1436   1.403       .  A
C1027     Br1034   1.921       .  S
C1028      C1435   1.403   1_545  A
C1028      H1033   1.083       .  S
C1029      C1030   1.424   1_545  A
C1030     Br1031   1.926   1_565  S
C1035      C1036   1.415       .  A
C1035      C1040   1.400   1_556  A
C1035      H1042   1.083       .  S
C1036      C1037   1.406       .  A
C1037      C1038   1.405   1_556  A
C1037     Br1044   1.918       .  S
C1038      C1039   1.414       .  A
C1038      H1043   1.083       .  S
C1039      C1040   1.403       .  A
C1040     Br1041   1.919       .  S
C1045      C1046   1.399       .  A
C1045      C1050   1.402       .  A
C1045      H1052   1.083       .  S
C1046      C1047   1.413       .  A
C1047      C1048   1.397       .  A
C1047     Br1054   1.920       .  S
C1048      C1049   1.398       .  A
C1048      H1053   1.083       .  S
C1049      C1050   1.414       .  A
C1050     Br1051   1.920       .  S
C1055      C1056   1.390       .  A
C1055      C1060   1.397       .  A
C1055      H1062   1.083       .  S
C1056      C1057   1.415       .  A
C1057      C1058   1.406       .  A
C1057     Br1064   1.921       .  S
C1058      C1059   1.405       .  A
C1058      H1063   1.082       .  S
C1059      C1060   1.431       .  A
C1060     Br1061   1.927       .  S
C1065      C1066   1.410       .  A
C1065      C1070   1.400       .  A
C1065      H1072   1.084       .  S
C1066      C1067   1.406       .  A
C1067      C1068   1.401       .  A
C1067     Br1074   1.920       .  S
C1068      C1069   1.412       .  A
C1068      H1073   1.084       .  S
C1069      C1070   1.407       .  A
C1070     Br1071   1.919       .  S
C1075      C1484   1.395       .  A
C1075      H1082   1.084       .  S
C1076      C1483   1.395   1_545  A
C1077      C1078   1.405       .  A
C1078      C1487   1.403       .  A
C1078      H1083   1.083       .  S
C1079      C1486   1.403       .  A
C1079      C1080   1.419       .  A
C1080     Br1081   1.925       .  S
C1085      C1086   1.413       .  A
C1085      C1090   1.404       .  A
C1085      H1092   1.083       .  S
C1086      C1087   1.406       .  A
C1087      C1088   1.403       .  A
C1087     Br1094   1.919       .  S
C1088      C1089   1.417       .  A
C1088      H1093   1.083       .  S
C1089      C1090   1.412       .  A
C1090     Br1091   1.920       .  S
C1095      C1096   1.402       .  A
C1095      C1100   1.400       .  A
C1095      H1102   1.083       .  S
C1096      C1505   1.428       .  A
C1097      C1504   1.428   1_545  A
C1097     Br1104   1.925       .  S
C1098      C1099   1.395   1_545  A
C1098      H1103   1.083       .  S
C1105      C1106   1.400       .  A
C1105      C1110   1.407       .  A
C1105      H1112   1.084   1_565  S
C1106      C1515   1.415       .  A
C1107      C1514   1.416       .  A
C1107      C1108   1.405       .  A
C1107     Br1114   1.920       .  S
C1108      C1109   1.402       .  A
C1108      H1113   1.084       .  S
C1109      C1518   1.421       .  A
C1110      C1517   1.421       .  A
C1110     Br1111   1.922   1_565  S
C1115      C1116   1.419       .  A
C1115      C1120   1.401       .  A
C1115      H1122   1.083       .  S
C1116      C1117   1.413   1_545  A
C1117      C1118   1.408   1_565  A
C1117     Br1124   1.918       .  S
C1118      C1119   1.410       .  A
C1118      H1123   1.083       .  S
C1119      C1120   1.399       .  A
C1120     Br1121   1.918       .  S
C1125      C1126   1.416       .  A
C1125      C1130   1.404       .  A
C1125      H1132   1.083       .  S
C1126      C1127   1.407       .  A
C1127      C1128   1.398       .  A
C1127     Br1134   1.922       .  S
C1128      C1129   1.418       .  A
C1128      H1541   1.083       .  S
C1129      C1279   1.499       .  S
C1129      C1130   1.407       .  A
C1130     Br1131   1.918       .  S
H1133      C1536   1.083       .  S
C1135      C1136   1.419       .  A
C1135      C1140   1.404       .  A
C1135      H1142   1.082       .  S
C1136      C1137   1.410       .  A
C1137      C1138   1.409       .  A
C1137     Br1552   1.918   1_545  S
C1138      C1139   1.414       .  A
C1138      H1143   1.083       .  S
C1139      C1140   1.403       .  A
C1140     Br1141   1.919       .  S
Br1144     C1545   1.918       .  S
C1145      C1146   1.415   1_455  A
C1145      C1150   1.400       .  A
C1145      H1152   1.084       .  S
C1147      C1148   1.401       .  A
C1147     Br1154   1.919       .  S
C1148      H1153   1.084       .  S
C1149      C1150   1.408   1_655  A
C1150     Br1151   1.920       .  S
C1155      C1156   1.400       .  A
C1155      C1160   1.402       .  A
C1155      H1162   1.084       .  S
C1156      C1157   1.414       .  A
C1157      C1158   1.400       .  A
C1157     Br1164   1.922       .  S
C1158      C1159   1.400       .  A
C1158      H1163   1.083       .  S
C1159      C1292   1.477       .  S
C1159      C1160   1.415       .  A
C1160     Br1569   1.920       .  S
Br1161     C1568   1.920   1_545  S
C1165      C1574   1.411   1_545  A
C1165      C1170   1.406       .  A
C1165      H1172   1.083       .  S
C1166      C1573   1.411       .  A
C1166      C1167   1.405       .  A
C1167      C1168   1.405       .  A
C1167     Br1174   1.919       .  S
C1168      C1577   1.418       .  A
C1168      H1173   1.083       .  S
C1169      C1576   1.418       .  A
C1169      C1170   1.412   1_565  A
C1170     Br1171   1.919       .  S
C1175      C1584   1.410       .  A
C1175      H1182   1.084   1_565  S
C1176      C1583   1.410       .  A
C1177      C1178   1.398       .  A
C1177     Br1184   1.920       .  S
C1178      C1587   1.412       .  A
C1178      H1183   1.084       .  S
C1179      C1586   1.412       .  A
C1179      C1180   1.408   1_565  A
C1185      C1186   1.412       .  A
C1185      C1190   1.402       .  A
C1185      H1192   1.084       .  S
C1187      C1188   1.401       .  A
C1187     Br1194   1.917       .  S
C1188      H1193   1.083       .  S
C1189      C1190   1.412       .  A
C1190     Br1191   1.921       .  S
C1195      C1604   1.393       .  A
C1195      C1200   1.392       .  A
C1195      H1202   1.085       .  S
C1196      C1603   1.393   1_545  A
C1197      C1198   1.402   1_545  A
C1197     Br1204   1.917       .  S
C1198      H1203   1.084       .  S
C1199      C1200   1.420       .  A
C1200     Br1201   1.926       .  S
C1205      C1206   1.409       .  A
C1205      C1210   1.413       .  A
C1205      H1212   1.083       .  S
C1206      C1207   1.405       .  A
C1207      C1208   1.394       .  A
C1208      C1209   1.406       .  A
C1208      H1213   1.084       .  S
C1209      C1210   1.413       .  A
C1210     Br1211   1.917       .  S
C1215      C1216   1.409       .  A
C1215      C1220   1.396       .  A
C1215      H1222   1.085       .  S
C1217      C1218   1.402       .  A
C1217     Br1224   1.918       .  S
C1218      H1223   1.084       .  S
C1219      C1220   1.405       .  A
C1220     Br1221   1.921       .  S
O1225     Cu1233   1.962       .  S
O1225      C1235   1.269       .  A
O1226     Cu1233   1.957       .  S
O1227     Cu1233   2.070       .  S
O1227      C1237   1.288       .  A
O1228     Cu1233   2.070       .  S
O1228      C1238   1.288       .  A
O1229     Cu1234   1.960       .  S
O1230     Cu1234   1.923       .  S
O1231     Cu1234   2.055       .  S
O1231      C1236   1.286       .  A
O1232     Cu1234   2.071       .  S
C1235      C1614   1.479       .  S
C1236      C1627   1.476       .  S
O1239     Cu1247   1.979   1_545  S
O1239      C1249   1.271   1_545  A
O1240     Cu1247   1.960       .  S
O1240      C1250   1.268       .  A
O1241     Cu1247   2.069   1_545  S
O1241      C1251   1.288   1_545  A
O1242     Cu1247   2.087       .  S
O1242      C1252   1.289       .  A
O1243     Cu1248   1.947       .  S
O1243      C1252   1.268       .  A
O1244     Cu1248   1.952       .  S
O1244      C1251   1.267       .  A
O1245     Cu1248   2.064       .  S
O1245      C1250   1.287       .  A
O1246     Cu1248   2.071       .  S
O1246      C1249   1.288       .  A
Cu1247    Cu1248   2.366       .  S
C1249      C1574   1.492       .  S
C1250      C1584   1.478       .  S
C1251      C1564   1.476       .  S
C1252      C1617   1.488       .  S
O1253     Cu1261   1.963       .  S
O1253      C1263   1.270       .  A
O1254     Cu1261   1.953       .  S
O1254      C1264   1.267       .  A
O1255     Cu1261   2.063       .  S
O1255      C1265   1.286       .  A
O1256     Cu1261   2.078       .  S
O1256      C1266   1.289       .  A
O1257     Cu1262   1.977       .  S
O1257      C1266   1.271       .  A
O1258     Cu1262   1.961       .  S
O1258      C1265   1.270       .  A
O1259     Cu1262   2.047       .  S
O1259      C1264   1.285       .  A
O1260     Cu1262   2.059       .  S
O1260      C1263   1.286       .  A
Cu1261    Cu1262   2.364       .  S
C1263      C1597   1.498       .  S
C1264      C1604   1.465       .  S
C1265      C1557   1.492       .  S
C1266      C1547   1.493       .  S
O1267     Cu1275   1.971       .  S
O1268     Cu1275   1.947       .  S
O1269     Cu1275   2.086       .  S
O1270      C1280   1.291       .  A
O1271     Cu1276   1.960       .  S
O1271      C1280   1.268       .  A
O1272     Cu1276   1.938       .  S
O1272      C1279   1.266       .  A
O1273     Cu1276   2.079       .  S
O1273      C1278   1.289       .  A
O1274     Cu1276   2.077       .  S
O1274      C1277   1.288       .  A
C1277      C1577   1.503       .  S
C1278      C1587   1.489       .  S
C1280      C1544   1.505       .  S
O1281     Cu1289   1.964       .  S
O1281      C1291   1.270       .  A
O1282     Cu1289   1.951       .  S
O1282      C1292   1.267       .  A
O1283     Cu1289   2.067       .  S
O1283      C1293   1.288       .  A
O1284     Cu1289   2.066       .  S
O1284      C1294   1.286       .  A
O1285     Cu1290   1.992       .  S
O1286     Cu1290   1.956       .  S
O1287     Cu1290   2.065       .  S
O1288      C1291   1.288       .  A
C1291      C1524   1.504       .  S
C1293      C1507   1.484       .  S
C1294      C1514   1.488       .  S
O1295     Cu1303   1.965       .  S
O1295      C1305   1.270       .  A
O1296     Cu1303   1.971       .  S
O1296      C1306   1.270       .  A
O1297     Cu1303   2.066       .  S
O1297      C1307   1.287       .  A
O1298     Cu1303   2.052       .  S
O1298      C1308   1.285       .  A
O1299     Cu1304   1.961       .  S
O1299      C1308   1.268       .  A
O1300     Cu1304   1.973       .  S
O1300      C1307   1.271       .  A
O1301     Cu1304   2.070       .  S
O1301      C1306   1.287       .  A
O1302     Cu1304   2.054       .  S
O1302      C1305   1.286       .  A
Cu1303    Cu1304   2.369       .  S
C1305      C1474   1.482       .  S
C1306      C1527   1.483       .  S
C1307      C1494   1.495       .  S
C1308      C1484   1.470       .  S
O1309     Cu1317   1.961       .  S
O1309      C1319   1.266       .  A
O1310     Cu1317   1.972       .  S
O1310      C1320   1.269       .  A
O1311     Cu1317   2.057       .  S
O1311      C1321   1.286       .  A
O1312     Cu1317   2.057       .  S
O1312      C1322   1.286       .  A
O1313     Cu1318   1.964       .  S
O1313      C1322   1.270       .  A
O1314     Cu1318   1.967       .  S
O1314      C1321   1.269       .  A
O1315     Cu1318   2.078       .  S
O1315      C1320   1.289       .  A
O1316     Cu1318   2.064       .  S
O1316      C1319   1.288       .  A
Cu1317    Cu1318   2.362       .  S
C1319      C1504   1.495       .  S
C1320      C1517   1.494       .  S
C1321      C1464   1.477       .  S
C1322      C1534   1.495       .  S
O1323     Cu1331   1.931       .  S
O1323      C1333   1.264       .  A
O1324     Cu1331   1.944       .  S
O1324      C1334   1.263       .  A
O1325     Cu1331   2.065       .  S
O1325      C1335   1.286       .  A
O1326     Cu1331   2.077       .  S
O1326      C1336   1.288       .  A
O1327     Cu1332   1.941       .  S
O1327      C1336   1.266       .  A
O1328     Cu1332   1.972       .  S
O1328      C1335   1.271       .  A
O1329     Cu1332   2.081       .  S
O1329      C1334   1.289       .  A
O1330     Cu1332   2.067       .  S
O1330      C1333   1.287       .  A
Cu1331    Cu1332   2.361       .  S
C1333      C1457   1.466       .  S
C1334      C1467   1.497       .  S
C1335      C1497   1.502       .  S
C1336      C1487   1.482       .  S
O1337     Cu1345   1.972       .  S
O1337      C1347   1.270       .  A
O1338     Cu1345   1.950       .  S
O1338      C1348   1.266       .  A
O1339     Cu1345   2.061       .  S
O1339      C1349   1.286       .  A
O1340     Cu1345   2.076       .  S
O1340      C1350   1.288       .  A
O1341     Cu1346   1.951       .  S
O1341      C1350   1.268       .  A
O1342     Cu1346   1.949       .  S
O1342      C1349   1.267       .  A
O1343     Cu1346   2.060       .  S
O1343      C1348   1.287       .  A
O1344     Cu1346   2.068       .  S
O1344      C1347   1.287       .  A
Cu1345    Cu1346   2.369       .  S
C1347      C1427   1.489       .  S
C1348      C1434   1.474       .  S
C1349      C1454   1.469       .  S
C1350      C1444   1.491       .  S
O1351     Cu1359   1.944       .  S
O1351      C1361   1.267       .  A
O1352     Cu1359   1.967       .  S
O1352      C1362   1.269       .  A
O1353     Cu1359   2.081       .  S
O1353      C1363   1.289       .  A
O1354     Cu1359   2.070       .  S
O1354      C1364   1.287       .  A
O1355     Cu1360   1.931       .  S
O1355      C1364   1.266       .  A
O1356     Cu1360   1.949       .  S
O1356      C1363   1.267       .  A
O1357     Cu1360   2.067       .  S
O1357      C1362   1.287       .  A
O1358     Cu1360   2.062   1_455  S
O1358      C1361   1.286   1_455  A
Cu1359    Cu1360   2.365       .  S
C1361      C1624   1.476       .  S
C1362      C1447   1.487       .  S
C1363      C1407   1.491       .  S
C1364      C1414   1.491       .  S
O1365     Cu1373   1.945       .  S
O1365      C1375   1.265       .  A
O1366     Cu1373   1.963       .  S
O1366      C1376   1.269       .  A
O1367     Cu1373   2.074       .  S
O1367      C1377   1.288       .  A
O1368     Cu1373   2.063       .  S
O1368      C1378   1.286       .  A
O1369     Cu1374   1.959       .  S
O1369      C1378   1.269       .  A
O1370     Cu1374   1.977       .  S
O1370      C1377   1.271       .  A
O1371     Cu1374   2.071       .  S
O1371      C1376   1.288       .  A
O1372     Cu1374   2.072       .  S
O1372      C1375   1.288       .  A
Cu1373    Cu1374   2.360       .  S
C1375      C1437   1.488       .  S
C1376      C1424   1.500       .  S
C1377      C1397   1.504       .  S
C1378      C1477   1.483       .  S
O1379     Cu1387   1.966       .  S
O1380     Cu1387   1.941       .  S
O1381     Cu1387   2.069       .  S
O1381      C1391   1.288       .  A
O1382     Cu1387   2.079       .  S
O1383     Cu1388   1.974       .  S
O1383      C1392   1.270       .  A
O1384     Cu1388   1.952       .  S
O1385     Cu1388   2.057       .  S
O1385      C1390   1.286       .  A
O1386     Cu1388   2.065       .  S
O1386      C1389   1.287       .  A
C1391      C1554   1.492       .  S
C1392      C1394   1.492       .  S
C1393      C1394   1.411       .  A
C1393      C1398   1.406       .  A
C1393      H1400   1.084       .  S
C1394      C1395   1.404       .  A
C1395      C1396   1.406   1_554  A
C1396      C1397   1.418       .  A
C1396      H1401   1.083       .  S
C1397      C1398   1.412   1_556  A
C1398     Br1399   1.920       .  S
C1403      C1404   1.418       .  A
C1403      C1408   1.404       .  A
C1403      H1410   1.083       .  S
C1405     Br1412   1.921       .  S
C1406      C1407   1.413   1_455  A
C1407      C1408   1.404       .  A
C1408     Br1409   1.918       .  S
C1413      H1420   1.083       .  S
C1414      C1415   1.407       .  A
C1415     Br1422   1.920       .  S
C1416      C1417   1.415       .  A
C1416      H1421   1.083       .  S
C1418     Br1419   1.921       .  S
C1423      C1424   1.418       .  A
C1423      C1428   1.404       .  A
C1423      H1430   1.083       .  S
C1424      C1425   1.412       .  A
C1425      C1426   1.403       .  A
C1425     Br1432   1.920       .  S
C1426      C1427   1.410       .  A
C1426      H1431   1.084       .  S
C1427      C1428   1.404       .  A
C1428     Br1429   1.919       .  S
C1433      C1434   1.393       .  A
C1434      C1435   1.416       .  A
C1435     Br1442   1.921       .  S
C1436      H1441   1.083       .  S
C1437      C1438   1.424       .  A
C1438     Br1439   1.926       .  S
C1443      C1444   1.415       .  A
C1443      C1448   1.400   1_556  A
C1443      H1450   1.082       .  S
C1444      C1445   1.406       .  A
C1445      C1446   1.405   1_556  A
C1445     Br1452   1.918       .  S
C1446      C1447   1.414       .  A
C1446      H1451   1.083       .  S
C1447      C1448   1.403       .  A
C1448     Br1449   1.919       .  S
C1453      C1454   1.399       .  A
C1453      C1458   1.402       .  A
C1453      H1460   1.083       .  S
C1454      C1455   1.413       .  A
C1455      C1456   1.397       .  A
C1455     Br1462   1.920       .  S
C1456      C1457   1.398       .  A
C1456      H1461   1.083       .  S
C1457      C1458   1.414       .  A
C1458     Br1459   1.920       .  S
C1463      C1464   1.390       .  A
C1463      C1468   1.397       .  A
C1463      H1470   1.083       .  S
C1464      C1465   1.415       .  A
C1465      C1466   1.406       .  A
C1465     Br1472   1.921       .  S
C1466      C1467   1.405       .  A
C1466      H1471   1.082       .  S
C1467      C1468   1.431       .  A
C1468     Br1469   1.927       .  S
C1473      C1474   1.410       .  A
C1473      C1478   1.400       .  A
C1473      H1480   1.084       .  S
C1474      C1475   1.406       .  A
C1475      C1476   1.401       .  A
C1475     Br1482   1.920       .  S
C1476      C1477   1.412       .  A
C1476      H1481   1.084       .  S
C1477      C1478   1.407       .  A
C1478     Br1479   1.919       .  S
C1483      H1490   1.084       .  S
C1485      C1486   1.405       .  A
C1486      H1491   1.083       .  S
C1487      C1488   1.420       .  A
C1488     Br1489   1.925       .  S
C1493      C1494   1.413       .  A
C1493      C1498   1.404       .  A
C1493      H1500   1.083       .  S
C1494      C1495   1.407       .  A
C1495      C1496   1.403       .  A
C1495     Br1502   1.919       .  S
C1496      C1497   1.417       .  A
C1496      H1501   1.083       .  S
C1497      C1498   1.412       .  A
C1498     Br1499   1.920       .  S
C1503      C1504   1.402       .  A
C1503      C1508   1.400       .  A
C1503      H1510   1.083       .  S
C1505     Br1512   1.925       .  S
C1506      C1507   1.395       .  A
C1506      H1511   1.083       .  S
C1513      C1514   1.400       .  A
C1513      C1518   1.407       .  A
C1513      H1520   1.084       .  S
C1515      C1516   1.405       .  A
C1515     Br1522   1.920       .  S
C1516      C1517   1.402       .  A
C1516      H1521   1.084       .  S
C1518     Br1519   1.922       .  S
C1523      C1524   1.419       .  A
C1523      C1528   1.401       .  A
C1523      H1530   1.083       .  S
C1524      C1525   1.413       .  A
C1525      C1526   1.408       .  A
C1525     Br1532   1.918       .  S
C1526      C1527   1.410       .  A
C1526      H1531   1.083       .  S
C1527      C1528   1.400       .  A
C1528     Br1529   1.918       .  S
C1533      C1534   1.416       .  A
C1533      C1538   1.404       .  A
C1533      H1540   1.083       .  S
C1534      C1535   1.407   1_565  A
C1535      C1536   1.398       .  A
C1535     Br1542   1.922       .  S
C1536      C1537   1.418   1_545  A
C1537      C1538   1.407       .  A
C1538     Br1539   1.918       .  S
C1543      C1544   1.419       .  A
C1543      C1548   1.404       .  A
C1543      H1550   1.082       .  S
C1544      C1545   1.410       .  A
C1545      C1546   1.409       .  A
C1546      C1547   1.414       .  A
C1546      H1551   1.083       .  S
C1547      C1548   1.403       .  A
C1548     Br1549   1.919       .  S
C1553      C1554   1.415   1_455  A
C1553      C1558   1.400       .  A
C1553      H1560   1.084       .  S
C1555      C1556   1.401       .  A
C1555     Br1562   1.919       .  S
C1556      H1561   1.084       .  S
C1557      C1558   1.408   1_655  A
C1558     Br1559   1.920       .  S
C1563      C1564   1.400       .  A
C1563      C1568   1.403       .  A
C1563      H1570   1.084   1_565  S
C1564      C1565   1.414       .  A
C1565      C1566   1.400       .  A
C1565     Br1572   1.922       .  S
C1566      C1567   1.400       .  A
C1566      H1571   1.083       .  S
C1567      C1568   1.416       .  A
C1573      C1578   1.406       .  A
C1573      H1580   1.083       .  S
C1574      C1575   1.404       .  A
C1575      C1576   1.405       .  A
C1575     Br1582   1.919       .  S
C1576      H1581   1.083       .  S
C1577      C1578   1.412       .  A
C1578     Br1579   1.919       .  S
C1583      H1590   1.084       .  S
C1585      C1586   1.398       .  A
C1585     Br1592   1.920       .  S
C1586      H1591   1.084       .  S
C1587      C1588   1.408       .  A
C1593      C1594   1.412       .  A
C1593      C1598   1.402       .  A
C1593      H1600   1.084       .  S
C1595      C1596   1.401       .  A
C1595     Br1602   1.917       .  S
C1596      H1601   1.083       .  S
C1597      C1598   1.412       .  A
C1598     Br1599   1.921       .  S
C1603      C1608   1.392       .  A
C1603      H1610   1.085       .  S
C1605      C1606   1.402       .  A
C1605     Br1612   1.917       .  S
C1606      H1611   1.084       .  S
C1607      C1608   1.420       .  A
C1608     Br1609   1.926       .  S
C1613      C1614   1.409       .  A
C1613      C1618   1.413       .  A
C1613      H1620   1.083       .  S
C1614      C1615   1.405       .  A
C1615      C1616   1.394       .  A
C1616      C1617   1.406       .  A
C1616      H1621   1.084       .  S
C1617      C1618   1.413       .  A
C1618     Br1619   1.917       .  S
C1623      C1624   1.409       .  A
C1623      C1628   1.396       .  A
C1623      H1630   1.085       .  S
C1625      C1626   1.402       .  A
C1625     Br1632   1.918       .  S
C1626      H1631   1.084       .  S
C1627      C1628   1.405       .  A
C1628     Br1629   1.921       .  S
