geometry optimzed in LAMMPS
_audit_creation_date              2020-12-01 
_audit_creation_method            'lammps2cif' 
_symmetry_space_group_name_H-M    'P1' 
_symmetry_Int_Tables_number       1 
_symmetry_cell_setting            triclinic 
loop_ 
_symmetry_equiv_pos_as_xyz 
  x,y,z 
_cell_length_a                    29.63028732 
_cell_length_b                    29.583503066632534 
_cell_length_c                    86.92687034389877 
_cell_angle_alpha                 89.98016368109607 
_cell_angle_beta                  90.0172916954962 
_cell_angle_gamma                 119.75294271642404 
loop_ 
_atom_site_label 
_atom_site_type_symbol 
_atom_site_fract_x 
_atom_site_fract_y 
_atom_site_fract_z 
_atom_site_charge 
O1          O  0.67211317  0.47563349  0.08987646    -0.71900
O2          O  0.79913562  0.47331284  0.08417637    -0.72100
O3          O  0.72980153  0.44717185  0.10748260    -0.72000
O4          O  0.74042536  0.49910751  0.06706938    -0.72000
O5          O  0.78664992  0.57860948  0.07524007    -0.72000
O6          O  0.77195305  0.52589509  0.11643763    -0.72000
O7          O  0.84138169  0.55137030  0.09373463    -0.71900
O8          O  0.71687154  0.55515921  0.09817751    -0.72100
V9          V  0.73612651  0.47521049  0.08741092     1.35200
V10         V  0.77814909  0.55116765  0.09576813     1.35200
C11         C  0.67345785  0.51689807  0.09455129     0.77300
C12         C  0.84202977  0.51288608  0.08780554     0.77400
C13         C  0.74933774  0.47716914  0.11889768     0.77300
C14         C  0.76588165  0.54713516  0.06411456     0.77200
O15         O  0.81211287  0.46786322  0.92323328    -0.71900
O16         O  0.68168221  0.46238107  0.92928223    -0.72100
O17         O  0.72793004  0.44254584  0.90544102    -0.72000
O18         O  0.76470776  0.48639622  0.94694318    -0.72000
O19         O  0.80339275  0.56719462  0.93970901    -0.72000
O20         O  0.75711331  0.52278022  0.89847993    -0.72000
O21         O  0.71879193  0.54454093  0.92356966    -0.71900
O22         O  0.84398868  0.54665714  0.91451323    -0.72100
V23         V  0.74734076  0.46621902  0.92606498     1.35200
V24         V  0.78035676  0.54367789  0.91917147     1.35200
C25         C  0.85015355  0.50841081  0.91761718     0.77300
C26         C  0.67891813  0.50360092  0.92795069     0.77400
C27         C  0.73462522  0.47490295  0.89492706     0.77300
C28         C  0.78916597  0.53414069  0.95052464     0.77200
O29         O  0.37359791  0.62472620  0.08233821    -0.71900
O30         O  0.24622108  0.62428481  0.07445467    -0.72100
O31         O  0.31044802  0.64768008  0.09893503    -0.72000
O32         O  0.31022915  0.60296773  0.05803361    -0.72000
O33         O  0.26904127  0.52216878  0.06532460    -0.72000
O34         O  0.26345221  0.56744207  0.10634565    -0.72000
O35         O  0.20389040  0.54264365  0.08092223    -0.71900
O36         O  0.32913259  0.54546762  0.09076075    -0.72100
V37         V  0.30931334  0.62343567  0.07861867     1.35200
V38         V  0.26735715  0.54605489  0.08574368     1.35200
C39         C  0.37281755  0.58464383  0.08783768     0.77300
C40         C  0.20330713  0.58227189  0.07587001     0.77400
C41         C  0.28666128  0.61560893  0.10963537     0.77300
C42         C  0.28977224  0.55531042  0.05459580     0.77200
O43         O  0.25409835  0.60921619  0.91178035    -0.71900
O44         O  0.37826695  0.60339813  0.91835529    -0.72100
O45         O  0.33589999  0.62636722  0.89415245    -0.72000
O46         O  0.29769788  0.58802875  0.93556097    -0.72000
O47         O  0.25842414  0.50615999  0.92946336    -0.72000
O48         O  0.29559490  0.54526074  0.88717208    -0.72000
O49         O  0.33788367  0.52228349  0.91118392    -0.71900
O50         O  0.21443403  0.52757514  0.90523125    -0.72100
V51         V  0.31573761  0.60518016  0.91474427     1.35200
V52         V  0.27722520  0.52686536  0.90836174     1.35200
C53         C  0.21281352  0.56878745  0.90767102     0.77300
C54         C  0.37842789  0.56117187  0.91621535     0.77400
C55         C  0.32225224  0.59300685  0.88352643     0.77300
C56         C  0.27287457  0.54106288  0.93978119     0.77200
O57         O  0.59112527  0.26202079  0.76039363    -0.71900
O58         O  0.59703509  0.39185048  0.75282475    -0.72100
O59         O  0.61818196  0.34922092  0.77720354    -0.72000
O60         O  0.57198535  0.30638732  0.73632828    -0.72000
O61         O  0.49211265  0.27865662  0.74327180    -0.72000
O62         O  0.53849346  0.31197510  0.78521581    -0.72000
O63         O  0.51896962  0.35951855  0.76214497    -0.71900
O64         O  0.50974475  0.22843856  0.76651166    -0.72100
V65         V  0.59313141  0.32667750  0.75691484     1.35200
V66         V  0.51632811  0.29502041  0.76419034     1.35200
C67         C  0.54832563  0.22231733  0.76397240     0.77300
C68         C  0.55845157  0.39726725  0.75621467     0.77400
C69         C  0.58671740  0.33886828  0.78824317     0.77300
C70         C  0.52482635  0.28751534  0.73261676     0.77200
O71         O  0.60269707  0.40200660  0.58926362    -0.71900
O72         O  0.60751920  0.27584904  0.59357840    -0.72100
O73         O  0.62199236  0.34134947  0.57019747    -0.72000
O74         O  0.58985404  0.33668271  0.61257718    -0.72000
O75         O  0.50752264  0.29737139  0.60742810    -0.72000
O76         O  0.54040150  0.29101807  0.56490967    -0.72000
O77         O  0.52385827  0.23251972  0.59016710    -0.71900
O78         O  0.52218272  0.35657139  0.58216687    -0.72100
V79         V  0.60401321  0.33828958  0.59127774     1.35200
V80         V  0.52504350  0.29539796  0.58621139     1.35200
C81         C  0.56121675  0.40058283  0.58485679     0.77300
C82         C  0.56552272  0.23266901  0.59312202     0.77400
C83         C  0.58732738  0.31546473  0.56033800     0.77300
C84         C  0.54363155  0.31631639  0.61740822     0.77200
O85         O  0.44514894  0.81786259  0.74998518    -0.71900
O86         O  0.44621341  0.69070670  0.74264050    -0.72100
O87         O  0.42390067  0.73266952  0.76683004    -0.72000
O88         O  0.46538988  0.77429469  0.72571267    -0.72000
O89         O  0.54654248  0.81475556  0.73254078    -0.72000
O90         O  0.50446161  0.76574296  0.77380557    -0.72000
O91         O  0.52830050  0.73076520  0.74845922    -0.71900
O92         O  0.52476015  0.85253179  0.75812386    -0.72100
V93         V  0.44664579  0.75470123  0.74643974     1.35200
V94         V  0.52440355  0.79044866  0.75312724     1.35200
C95         C  0.48517761  0.85676102  0.75554283     0.77300
C96         C  0.48844123  0.68996804  0.74406926     0.77400
C97         C  0.45653931  0.73991412  0.77724694     0.77300
C98         C  0.51268469  0.80055452  0.72195173     0.77200
O99         O  0.45403934  0.70034838  0.58046920    -0.71900
O100        O  0.44486113  0.82368007  0.58542056    -0.72100
O101        O  0.42669689  0.75709905  0.56194083    -0.72000
O102        O  0.46969797  0.76616750  0.60332628    -0.72000
O103        O  0.55068845  0.81256089  0.59666902    -0.72000
O104        O  0.50655719  0.80476481  0.55454329    -0.72000
O105        O  0.52569538  0.86951453  0.57832370    -0.71900
O106        O  0.53400740  0.74760101  0.57287565    -0.72100
V107        V  0.45032538  0.76263927  0.58253148     1.35200
V108        V  0.52766357  0.80753908  0.57566918     1.35200
C109        C  0.49661652  0.70351841  0.57644064     0.77300
C110        C  0.48478212  0.86761112  0.58315293     0.77400
C111        C  0.45846028  0.78047683  0.55113833     0.77300
C112        C  0.51691144  0.79061441  0.60719826     0.77200
O113        O  0.36789209  0.82814920  0.24647785    -0.71900
O114        O  0.24772046  0.69447271  0.25067391    -0.72100
O115        O  0.31274662  0.74606908  0.22747827    -0.72000
O116        O  0.30217437  0.77435887  0.26953995    -0.72000
O117        O  0.25243841  0.80614835  0.26359324    -0.72000
O118        O  0.26491988  0.77943260  0.22092493    -0.72000
O119        O  0.19988098  0.72791847  0.24379099    -0.71900
O120        O  0.31839793  0.86024610  0.24049195    -0.72100
V121        V  0.30695976  0.76165864  0.24836962     1.35200
V122        V  0.26014481  0.79310541  0.24229303     1.35200
C123        C  0.36324197  0.86737773  0.24321667     0.77300
C124        C  0.20345223  0.68910134  0.24794022     0.77400
C125        C  0.28886978  0.75557202  0.21702846     0.77300
C126        C  0.27385230  0.79276824  0.27393419     0.77200
O127        O  0.22748906  0.69444162  0.41694737    -0.71900
O128        O  0.35856390  0.81775661  0.41144932    -0.72100
O129        O  0.31153336  0.75161114  0.43495699    -0.72000
O130        O  0.27543281  0.75987217  0.39344640    -0.72000
O131        O  0.24225918  0.80773550  0.40039011    -0.72000
O132        O  0.27831571  0.79883536  0.44241835    -0.72000
O133        O  0.32345289  0.86342005  0.41897982    -0.71900
O134        O  0.19450922  0.74208849  0.42420570    -0.72100
V135        V  0.29253461  0.75674859  0.41435035     1.35200
V136        V  0.26002889  0.80185358  0.42134083     1.35200
C137        C  0.18846689  0.69757873  0.42142237     0.77300
C138        C  0.36291739  0.86150677  0.41461781     0.77400
C139        C  0.30258296  0.77478065  0.44575022     0.77300
C140        C  0.25354201  0.78564034  0.38973928     0.77200
O141        O  0.67511200  0.26568276  0.25353965    -0.71900
O142        O  0.80202919  0.39346154  0.25852948    -0.72100
O143        O  0.73560557  0.34635416  0.23516885    -0.72000
O144        O  0.74045458  0.31326329  0.27693390    -0.72000
O145        O  0.78441417  0.27491270  0.27100331    -0.72000
O146        O  0.77931639  0.30856725  0.22851698    -0.72000
O147        O  0.84438579  0.35353920  0.25234482    -0.71900
O148        O  0.71947637  0.22780910  0.24740293    -0.72100
V149        V  0.73916733  0.32896267  0.25590197     1.35200
V150        V  0.78095718  0.29190533  0.24986750     1.35200
C151        C  0.67627454  0.22481039  0.24999085     0.77300
C152        C  0.84479045  0.39440611  0.25654716     0.77400
C153        C  0.75666166  0.33378858  0.22464797     0.77300
C154        C  0.76295672  0.28863676  0.28119101     0.77200
O155        O  0.78539008  0.39309403  0.42379273    -0.71900
O156        O  0.66186778  0.26269584  0.41774818    -0.72100
O157        O  0.70350856  0.32846594  0.44169277    -0.72000
O158        O  0.74186999  0.32727537  0.40019170    -0.72000
O159        O  0.78464331  0.28834245  0.40672127    -0.72000
O160        O  0.74248290  0.28623043  0.44863125    -0.72000
O161        O  0.70471306  0.22349100  0.42401493    -0.71900
O162        O  0.82501850  0.35182688  0.43132072    -0.72100
V163        V  0.72403008  0.32727491  0.42107138     1.35200
V164        V  0.76356583  0.28847843  0.42760699     1.35200
C165        C  0.82657013  0.39425336  0.42833834     0.77300
C166        C  0.66334004  0.22088039  0.41927152     0.77400
C167        C  0.71483029  0.30641293  0.45227198     0.77300
C168        C  0.76836395  0.30646889  0.39620233     0.77200
C169        C  0.77723039  0.30230536  0.37948037    -0.20000
C170        C  0.78593600  0.26288052  0.37336588     0.36200
C171        C  0.78691970  0.25715432  0.35722795    -0.26000
C172        C  0.77842840  0.28931636  0.34715105     0.02600
C173        C  0.77169767  0.32971813  0.35324316     0.27500
C174        C  0.77122642  0.33577910  0.36924305    -0.25100
N175        N  0.79156304  0.22749664  0.38345606    -0.82500
H176        H  0.79207205  0.22613994  0.35249442     0.13300
C177        C  0.77323417  0.27928648  0.33026139     0.02600
N178        N  0.76428692  0.36387732  0.34308052    -0.81100
H179        H  0.76491187  0.36633795  0.37375059     0.18100
C180        C  0.72550994  0.26569923  0.32326688    -0.25900
C181        C  0.72061268  0.26516805  0.30719097     0.36100
C182        C  0.76428568  0.27791461  0.29782327    -0.19900
C183        C  0.81096051  0.28714668  0.30476727    -0.25200
C184        C  0.81606098  0.28862011  0.32095797     0.27500
H185        H  0.69248373  0.25781508  0.33044316     0.13300
N186        N  0.67179361  0.25336631  0.30032561    -0.82500
H187        H  0.84443495  0.29675627  0.29759583     0.18100
N188        N  0.86505597  0.30193549  0.32795526    -0.81100
H189        H  0.64379962  0.24553853  0.30878831     0.33700
H190        H  0.65860810  0.21914061  0.29394917     0.38200
H191        H  0.89262300  0.30780841  0.31953783     0.33700
H192        H  0.87853120  0.33756826  0.33360490     0.30400
H193        H  0.75924793  0.39122922  0.34933833     0.33700
H194        H  0.79839337  0.38477477  0.33667984     0.30400
H195        H  0.75595412  0.20494814  0.38901717     0.38300
H196        H  0.79865245  0.20160296  0.37712871     0.33700
C197        C  0.61916524  0.16951293  0.41542267    -0.20000
C198        C  0.56730087  0.15831436  0.41653259     0.36200
C199        C  0.52714078  0.10690915  0.41461705    -0.26000
C200        C  0.53818722  0.06666384  0.41173480     0.02600
C201        C  0.58988519  0.07830278  0.40961360     0.27500
C202        C  0.62987541  0.12976509  0.41137271    -0.25100
N203        N  0.55527589  0.19826812  0.42031903    -0.82500
H204        H  0.48719578  0.09791447  0.41606897     0.13300
C205        C  0.49582064  0.01224197  0.41266024     0.02600
N206        N  0.60163874  0.03761813  0.40630904    -0.81100
H207        H  0.66980997  0.13855370  0.41009316     0.18100
C208        C  0.48428934  0.97883089  0.39997782    -0.25900
C209        C  0.44247270  0.92750158  0.40054289     0.36100
C210        C  0.41238189  0.91015937  0.41402724    -0.19900
C211        C  0.42539806  0.94288728  0.42686040    -0.25200
C212        C  0.46722203  0.99363200  0.42639091     0.27500
H213        H  0.50696647  0.99334601  0.38953292     0.13300
N214        N  0.42926503  0.89385539  0.38738590    -0.82500
H215        H  0.40203601  0.92895620  0.43721778     0.18100
N216        N  0.48054573  0.02661270  0.43972933    -0.81100
H217        H  0.45551780  0.91271279  0.37842491     0.33700
H218        H  0.39283389  0.88637815  0.38344459     0.38200
H219        H  0.45521683  0.00701747  0.44883173     0.33700
H220        H  0.51756808  0.03491716  0.44331392     0.30400
H221        H  0.64171006  0.05299142  0.40493953     0.33700
H222        H  0.59072202  0.01299545  0.41586899     0.30400
H223        H  0.53196125  0.19985770  0.41154229     0.38300
H224        H  0.53354300  0.18753583  0.43048127     0.33700
C225        C  0.13638543  0.65128809  0.42336263    -0.20000
C226        C  0.11890251  0.60599684  0.41427721     0.36200
C227        C  0.06691747  0.56586902  0.41557464    -0.26000
C228        C  0.03280015  0.56996684  0.42590126     0.02600
C229        C  0.05039084  0.61433665  0.43521167     0.27500
C230        C  0.10196056  0.65460935  0.43383297    -0.25100
N231        N  0.15308039  0.60163541  0.40340184    -0.82500
H232        H  0.05282667  0.53124035  0.40852968     0.13300
C233        C  0.97861048  0.52724936  0.42701058     0.02600
N234        N  0.01558850  0.61833446  0.44593421    -0.81100
H235        H  0.11521381  0.68912129  0.44088138     0.18100
C236        C  0.96448125  0.49230508  0.43931060    -0.25900
C237        C  0.91377274  0.45004408  0.44050167     0.36100
C238        C  0.87664309  0.44310808  0.42918931    -0.19900
C239        C  0.89029438  0.47960372  0.41726945    -0.25200
C240        C  0.94126323  0.52159149  0.41601152     0.27500
H241        H  0.99343343  0.49757400  0.44782357     0.13300
N242        N  0.89996440  0.41367273  0.45299920    -0.82500
H243        H  0.86190735  0.47386059  0.40850603     0.18100
N244        N  0.95570332  0.55774278  0.40344045    -0.81100
H245        H  0.93184064  0.42417063  0.46024058     0.33700
H246        H  0.87169703  0.41610598  0.45957208     0.38200
H247        H  0.92386815  0.54769843  0.39623661     0.33700
H248        H  0.96610484  0.59427589  0.40806761     0.30400
H249        H  0.03474984  0.65336960  0.45203415     0.33700
H250        H  0.98623031  0.61953062  0.43958774     0.30400
H251        H  0.18127245  0.59810181  0.40967439     0.38300
H252        H  0.13303397  0.56734005  0.39700297     0.33700
C253        C  0.40863582  0.92061473  0.24301471    -0.20000
C254        C  0.40274756  0.96476767  0.24539330     0.36200
C255        C  0.44687325  0.01437674  0.24576681    -0.26000
C256        C  0.49672981  0.02125891  0.24362345     0.02600
C257        C  0.50266782  0.97736923  0.24092242     0.27500
C258        C  0.45856535  0.92744971  0.24083640    -0.25100
N259        N  0.35224268  0.95920018  0.24790271    -0.82500
H260        H  0.44242016  0.04784439  0.24824173     0.13300
C261        C  0.54227593  0.07433347  0.24519680     0.02600
N262        N  0.55339247  0.98366690  0.23829138    -0.81100
H263        H  0.46316906  0.89376501  0.23893380     0.18100
C264        C  0.58244230  0.08194448  0.25527337    -0.25900
C265        C  0.62624100  0.13119359  0.25714762     0.36100
C266        C  0.62897835  0.17400046  0.24920588    -0.19900
C267        C  0.58813878  0.16726768  0.23965264    -0.25200
C268        C  0.54510017  0.11751385  0.23729228     0.27500
H269        H  0.57959315  0.04928894  0.26172650     0.13300
N270        N  0.66806355  0.13800834  0.26706054    -0.82500
H271        H  0.59099092  0.20047114  0.23350492     0.18100
N272        N  0.50492266  0.11050313  0.22667325    -0.81100
H273        H  0.66014121  0.10251390  0.27194253     0.33700
H274        H  0.67020296  0.16211930  0.27614739     0.38200
H275        H  0.51288726  0.14615716  0.22189088     0.33700
H276        H  0.50531172  0.08748812  0.21760940     0.30400
H277        H  0.55103188  0.94756397  0.23661886     0.33700
H278        H  0.56768399  0.00458635  0.22805786     0.30400
H279        H  0.33849488  0.94029087  0.25844683     0.38300
H280        H  0.35476064  0.99560451  0.24896114     0.33700
C281        C  0.15595637  0.63978903  0.24998054    -0.20000
C282        C  0.12321719  0.61581416  0.23732110     0.36200
C283        C  0.07213734  0.57624003  0.23992997    -0.26000
C284        C  0.05298566  0.56218677  0.25497028     0.02600
C285        C  0.08648392  0.58545913  0.26764305     0.27500
C286        C  0.13822906  0.62362363  0.26497033    -0.25100
N287        N  0.14150132  0.63348374  0.22195916    -0.82500
H288        H  0.04665796  0.55735166  0.23022985     0.13300
C289        C  0.99779876  0.52285958  0.25716524     0.02600
N290        N  0.06724159  0.57195506  0.28311536    -0.81100
H291        H  0.16365322  0.64359436  0.27460315     0.18100
C292        C  0.98548359  0.47862881  0.26599249    -0.25900
C293        C  0.93420077  0.43797031  0.26707537     0.36100
C294        C  0.89494954  0.44130061  0.25886488    -0.19900
C295        C  0.90642440  0.48662408  0.25078787    -0.25200
C296        C  0.95779115  0.52783035  0.24988955     0.27500
H297        H  0.01620864  0.47495959  0.27157884     0.13300
N298        N  0.92180631  0.39244758  0.27607732    -0.82500
H299        H  0.87588332  0.48862964  0.24449352     0.18100
N300        N  0.96979572  0.57396663  0.24127825    -0.81100
H301        H  0.95516357  0.39605723  0.28134205     0.33700
H302        H  0.89702834  0.39045300  0.28494653     0.38200
H303        H  0.93606191  0.57105776  0.23649899     0.33700
H304        H  0.98437699  0.60512218  0.24900789     0.30400
H305        H  0.09692604  0.59280443  0.29106679     0.33700
H306        H  0.03945864  0.58350654  0.28472439     0.30400
H307        H  0.17179087  0.62591941  0.21971698     0.38300
H308        H  0.11228816  0.61222875  0.21391462     0.33700
C309        C  0.24311573  0.78995834  0.37319104    -0.20000
C310        C  0.21169503  0.74498865  0.36447091     0.36200
C311        C  0.21081877  0.74790200  0.34830830    -0.26000
C312        C  0.24202463  0.79500067  0.34046974     0.02600
C313        C  0.27135913  0.84081412  0.34924632     0.27500
C314        C  0.27117197  0.83787714  0.36552023    -0.25100
N315        N  0.18147953  0.69589901  0.37202988    -0.82500
H316        H  0.18751079  0.71256808  0.34178856     0.13300
C317        C  0.24850711  0.79429014  0.32330987     0.02600
N318        N  0.30327396  0.88964868  0.34161235    -0.81100
H319        H  0.29574285  0.87250090  0.37217831     0.18100
C320        C  0.23788949  0.82572009  0.31345181    -0.25900
C321        C  0.24578224  0.82652810  0.29731578     0.36100
C322        C  0.26482026  0.79525265  0.29085689    -0.19900
C323        C  0.27480789  0.76366847  0.30080384    -0.25200
C324        C  0.26710040  0.76292151  0.31679032     0.27500
H325        H  0.22353757  0.84981258  0.31837905     0.13300
N326        N  0.23496952  0.85926905  0.28758013    -0.82500
H327        H  0.28875708  0.73897366  0.29607817     0.18100
N328        N  0.27885667  0.73072596  0.32649729    -0.81100
H329        H  0.22066099  0.87918201  0.29407206     0.33700
H330        H  0.27025845  0.88756054  0.28286742     0.38200
H331        H  0.29156872  0.70952988  0.31995935     0.33700
H332        H  0.30987136  0.75536375  0.33361082     0.30400
H333        H  0.32237228  0.91950116  0.34965984     0.33700
H334        H  0.33216292  0.88661832  0.33557435     0.30400
H335        H  0.19289975  0.67007201  0.36776136     0.38300
H336        H  0.14246802  0.68148720  0.36910379     0.33700
C337        C  0.43805174  0.77984947  0.53519140    -0.20000
C338        C  0.46916357  0.81286913  0.52310488     0.36200
C339        C  0.44584817  0.81315581  0.50886897    -0.26000
C340        C  0.39230683  0.78054199  0.50624291     0.02600
C341        C  0.36149103  0.74725045  0.51817589     0.27500
C342        C  0.38446760  0.74723385  0.53238254    -0.25100
N343        N  0.52403805  0.84651866  0.52529904    -0.82500
H344        H  0.46968664  0.83846440  0.49967186     0.13300
C345        C  0.36880523  0.77992717  0.49085976     0.02600
N346        N  0.30659478  0.71384442  0.51586507    -0.81100
H347        H  0.35985793  0.72169628  0.54142058     0.18100
C348        C  0.34771042  0.73448777  0.48188844    -0.25900
C349        C  0.32488666  0.73178525  0.46744578     0.36100
C350        C  0.32222252  0.77505110  0.46167488    -0.19900
C351        C  0.34230477  0.82028696  0.47080081    -0.25200
C352        C  0.36575591  0.82324215  0.48526770     0.27500
H353        H  0.34927666  0.70080500  0.48609670     0.13300
N354        N  0.30372828  0.68451477  0.45874803    -0.82500
H355        H  0.34092165  0.85391088  0.46645642     0.18100
N356        N  0.38648249  0.87002141  0.49429415    -0.81100
H357        H  0.27524642  0.65458764  0.46545117     0.33700
H358        H  0.33346098  0.67592280  0.45677635     0.38200
H359        H  0.38153287  0.89836906  0.48857510     0.33700
H360        H  0.36467910  0.86114540  0.50441956     0.30400
H361        H  0.28928609  0.69146842  0.52568605     0.33700
H362        H  0.29011638  0.73764013  0.51429932     0.30400
H363        H  0.54085424  0.82282185  0.52635184     0.38300
H364        H  0.54073513  0.86960427  0.51556511     0.33700
C365        C  0.52638505  0.81150441  0.70537388    -0.20000
C366        C  0.57100025  0.81291913  0.69897432     0.36200
C367        C  0.57711026  0.81461270  0.68281638    -0.26000
C368        C  0.53918811  0.81409744  0.67301798     0.02600
C369        C  0.49608423  0.81525087  0.67942601     0.27500
C370        C  0.49012137  0.81388827  0.69547002    -0.25100
N371        N  0.60841917  0.80979809  0.70878258    -0.82500
H372        H  0.61005925  0.81351967  0.67782920     0.13300
C373        C  0.54108005  0.80656749  0.65614886     0.02600
N374        N  0.45760507  0.81608150  0.66952409    -0.81100
H375        H  0.45597740  0.81307853  0.70027269     0.18100
C376        C  0.50315886  0.75945076  0.64975831    -0.25900
C377        C  0.49743025  0.75261027  0.63380262     0.36100
C378        C  0.53016555  0.79359460  0.62382006    -0.19900
C379        C  0.57084815  0.83953064  0.63018465    -0.25200
C380        C  0.57642770  0.84651563  0.64632814     0.27500
H381        H  0.47644240  0.72829648  0.65724710     0.13300
N382        N  0.45745525  0.70404054  0.62776015    -0.82500
H383        H  0.59620141  0.87110215  0.62261236     0.18100
N384        N  0.61643122  0.89452244  0.65275925    -0.81100
H385        H  0.46382565  0.67445246  0.63184100     0.33700
H386        H  0.42170208  0.69745833  0.63205987     0.38200
H387        H  0.63917721  0.91988443  0.64402037     0.33700
H388        H  0.59826360  0.91245353  0.65838343     0.30400
H389        H  0.42792340  0.81620362  0.67599897     0.33700
H390        H  0.47562565  0.85113257  0.66341266     0.30400
H391        H  0.59005940  0.77304579  0.71396815     0.38300
H392        H  0.63905944  0.81187301  0.70227724     0.33700
C393        C  0.56292702  0.18249900  0.59586105    -0.20000
C394        C  0.59485415  0.16784003  0.58782484     0.36200
C395        C  0.58117280  0.11506453  0.58758260    -0.26000
C396        C  0.53607161  0.07723050  0.59507479     0.02600
C397        C  0.50675375  0.09272654  0.60413935     0.27500
C398        C  0.52079936  0.14538749  0.60451798    -0.25100
N399        N  0.63822417  0.20558287  0.57897748    -0.82500
H400        H  0.60409119  0.10289552  0.58086757     0.13300
C401        C  0.51736493  0.02147644  0.59212420     0.02600
N402        N  0.46123397  0.05470097  0.61219020    -0.81100
H403        H  0.49668598  0.15713357  0.61079541     0.18100
C404        C  0.50986422  0.98782100  0.60445526    -0.25900
C405        C  0.49413580  0.93522482  0.60181475     0.36100
C406        C  0.48614718  0.91653982  0.58659266    -0.19900
C407        C  0.49184996  0.94957277  0.57433641    -0.25200
C408        C  0.50667091  0.00183801  0.57695963     0.27500
H409        H  0.51788402  0.00303780  0.61607974     0.13300
N410        N  0.48958291  0.90155696  0.61437320    -0.82500
H411        H  0.48655158  0.93492839  0.56265905     0.18100
N412        N  0.51187110  0.03536759  0.56428991    -0.81100
H413        H  0.49802670  0.92165548  0.62481298     0.33700
H414        H  0.45070700  0.87201963  0.61496471     0.38200
H415        H  0.50305406  0.01494312  0.55389345     0.33700
H416        H  0.48418646  0.04710974  0.56576386     0.30400
H417        H  0.44429310  0.07274471  0.61838740     0.33700
H418        H  0.43393232  0.03107350  0.60396351     0.30400
H419        H  0.66568204  0.23195172  0.58671143     0.38300
H420        H  0.65622493  0.18781202  0.57318028     0.33700
C421        C  0.50439286  0.65791446  0.57693762    -0.20000
C422        C  0.53654972  0.65179801  0.56612915     0.36200
C423        C  0.54757154  0.61107137  0.56798605    -0.26000
C424        C  0.52757914  0.57686847  0.58048572     0.02600
C425        C  0.49594743  0.58313947  0.59139838     0.27500
C426        C  0.48428767  0.62344447  0.58944262    -0.25100
N427        N  0.55763425  0.68679911  0.55328472    -0.82500
H428        H  0.57155921  0.60565379  0.55960879     0.13300
C429        C  0.53737511  0.53257884  0.58139116     0.02600
N430        N  0.47687801  0.54935010  0.60456791    -0.81100
H431        H  0.46085327  0.62906589  0.59797484     0.18100
C432        C  0.58165489  0.53826347  0.58898497    -0.25900
C433        C  0.59193243  0.49660245  0.58982809     0.36100
C434        C  0.55649545  0.44812405  0.58310499    -0.19900
C435        C  0.51278958  0.44341064  0.57524600    -0.25200
C436        C  0.50300463  0.48506773  0.57429049     0.27500
H437        H  0.60821322  0.57533630  0.59423945     0.13300
N438        N  0.63737170  0.50319612  0.59776462    -0.82500
H439        H  0.48565138  0.40677617  0.56988516     0.18100
N440        N  0.45854684  0.47956678  0.56598504    -0.81100
H441        H  0.65770816  0.54029046  0.60267118     0.33700
H442        H  0.66216787  0.50143698  0.58952946     0.38200
H443        H  0.43765407  0.44243028  0.56114138     0.33700
H444        H  0.43366804  0.48275885  0.57387603     0.30400
H445        H  0.45518512  0.55994983  0.61167738     0.33700
H446        H  0.45135052  0.51172245  0.60065754     0.30400
H447        H  0.52646718  0.68167948  0.54642056     0.38300
H448        H  0.58067463  0.67710846  0.54646851     0.36100
C449        C  0.60236818  0.31289137  0.54405705    -0.20000
C450        C  0.64455307  0.35631530  0.53685834     0.36200
C451        C  0.65965579  0.35145137  0.52184944    -0.26000
C452        C  0.63471426  0.30400437  0.51390841     0.02600
C453        C  0.59248550  0.26066981  0.52094498     0.27500
C454        C  0.57644209  0.26563611  0.53588382    -0.25100
N455        N  0.67132363  0.40567292  0.54462452    -0.82500
H456        H  0.69170953  0.38480912  0.51634405     0.13300
C457        C  0.65271557  0.30141254  0.49803888     0.02600
N458        N  0.56633863  0.21180125  0.51292704    -0.81100
H459        H  0.54443619  0.23210464  0.54133201     0.18100
C460        C  0.68418140  0.27896147  0.49551706    -0.25900
C461        C  0.70541240  0.28011579  0.48082864     0.36100
C462        C  0.69465815  0.30410867  0.46830224    -0.19900
C463        C  0.66215089  0.32556199  0.47095816    -0.25200
C464        C  0.64109108  0.32427682  0.48557989     0.27500
H465        H  0.69310398  0.26145305  0.50514402     0.13300
N466        N  0.73776281  0.25709340  0.47870121    -0.82500
H467        H  0.65281584  0.34349930  0.46154583     0.18100
N468        N  0.60798359  0.34638397  0.48787865    -0.81100
H469        H  0.73995805  0.23932518  0.48886002     0.33700
H470        H  0.77543778  0.28727803  0.47644917     0.38200
H471        H  0.60330159  0.36200797  0.47760720     0.33700
H472        H  0.57117895  0.31606525  0.49092944     0.30400
H473        H  0.53637491  0.18364723  0.51968982     0.33700
H474        H  0.54881225  0.21707250  0.50317404     0.30400
H475        H  0.69399698  0.40242947  0.55329339     0.38300
H476        H  0.69750695  0.43455592  0.53717671     0.33700
C477        C  0.54174455  0.16920888  0.76448694    -0.20000
C478        C  0.57224818  0.15506458  0.75532175     0.36200
C479        C  0.56002828  0.10265087  0.75481140    -0.26000
C480        C  0.51791401  0.06427098  0.76312615     0.02600
C481        C  0.48844891  0.07830944  0.77261937     0.27500
C482        C  0.50059635  0.13062264  0.77319937    -0.25100
N483        N  0.61424306  0.19335549  0.74615723    -0.82500
H484        H  0.58270311  0.09136554  0.74763922     0.13300
C485        C  0.50517679  0.00938291  0.76176099     0.02600
N486        N  0.44623809  0.03931118  0.78156058    -0.81100
H487        H  0.47719021  0.14117164  0.78029538     0.18100
C488        C  0.52561297  0.98934549  0.77255554    -0.25900
C489        C  0.51721094  0.93847305  0.77114258     0.36100
C490        C  0.48756247  0.90703381  0.75866557    -0.19900
C491        C  0.46524287  0.92646924  0.74821770    -0.25200
C492        C  0.47415929  0.97769432  0.74958841     0.27500
H493        H  0.54903469  0.01391588  0.78193898     0.13300
N494        N  0.53921578  0.91877700  0.78222304    -0.82500
H495        H  0.44291279  0.90256111  0.73858877     0.18100
N496        N  0.45334771  0.99832039  0.73843119    -0.81100
H497        H  0.56029256  0.94690633  0.79056770     0.33700
H498        H  0.50841393  0.88764830  0.78793879     0.38200
H499        H  0.43213838  0.97036100  0.73005671     0.33700
H500        H  0.42703035  0.00636026  0.74410946     0.30400
H501        H  0.42876748  0.05611626  0.78808758     0.33700
H502        H  0.41793515  0.01352729  0.77390450     0.30400
H503        H  0.59802744  0.20587622  0.73762898     0.38300
H504        H  0.63339522  0.17665742  0.74042377     0.33700
C505        C  0.55732239  0.44531127  0.75308751    -0.20000
C506        C  0.56418012  0.46558654  0.73806581     0.36200
C507        C  0.55154483  0.50460945  0.73497155    -0.26000
C508        C  0.53292103  0.52374747  0.74667438     0.02600
C509        C  0.52880293  0.50525452  0.76185429     0.27500
C510        C  0.54028399  0.46557417  0.76484690    -0.25100
N511        N  0.58055831  0.44414588  0.72587728    -0.82500
H512        H  0.55493670  0.51924856  0.72335355     0.13300
C513        C  0.51816658  0.56353093  0.74308071     0.02600
N514        N  0.51243288  0.52651276  0.77410804    -0.81100
H515        H  0.53490219  0.44951053  0.77635035     0.18100
C516        C  0.46783410  0.55366472  0.74670561    -0.25900
C517        C  0.45501020  0.59341438  0.74590376     0.36100
C518        C  0.49333653  0.64353496  0.74120996    -0.19900
C519        C  0.54200187  0.65182083  0.73622633    -0.25200
C520        C  0.55512770  0.61257292  0.73731510     0.27500
H521        H  0.43935149  0.51547985  0.75089279     0.13300
N522        N  0.40486990  0.58404111  0.75090898    -0.82500
H523        H  0.57123882  0.69027558  0.73243043     0.18100
N524        N  0.60667391  0.62320734  0.73342774    -0.81100
H525        H  0.38221000  0.54565109  0.75471385     0.33700
H526        H  0.38584821  0.58796642  0.74130315     0.38200
H527        H  0.62907011  0.66127297  0.72931586     0.33700
H528        H  0.62452247  0.62096792  0.74354821     0.30400
H529        H  0.51101800  0.50827964  0.78454650     0.33700
H530        H  0.54077299  0.56566990  0.77535975     0.30400
H531        H  0.61880466  0.45340688  0.72820534     0.38300
H532        H  0.58147368  0.46193906  0.71539310     0.33700
C533        C  0.51059717  0.27841547  0.71601942    -0.20000
C534        C  0.48000828  0.29694813  0.70887197     0.36200
C535        C  0.47865572  0.29909691  0.69261022    -0.26000
C536        C  0.50696224  0.28275104  0.68342090     0.02600
C537        C  0.53403627  0.26046984  0.69060970     0.27500
C538        C  0.53591898  0.25896670  0.70675793    -0.25100
N539        N  0.45376830  0.31714310  0.71808405    -0.82500
H540        H  0.45777950  0.31612271  0.68711202     0.13300
C541        C  0.51364612  0.29441795  0.66654610     0.02600
N542        N  0.56121419  0.24121439  0.68141843    -0.81100
H543        H  0.55911038  0.24438086  0.71218713     0.18100
C544        C  0.56386369  0.32784038  0.66100924    -0.25900
C545        C  0.57404274  0.33780540  0.64520440     0.36100
C546        C  0.53297257  0.31287723  0.63439149    -0.19900
C547        C  0.48206686  0.28125777  0.64002685    -0.25200
C548        C  0.47201127  0.27192658  0.65598484     0.27500
H549        H  0.59563931  0.34605807  0.66915883     0.13300
N550        N  0.62629075  0.37281157  0.64017807    -0.82500
H551        H  0.45019663  0.26235550  0.63195084     0.18100
N552        N  0.41998581  0.23875151  0.66145327    -0.81100
H553        H  0.65191167  0.38645314  0.64951434     0.33700
H554        H  0.62660599  0.40534565  0.63535170     0.38200
H555        H  0.39375846  0.22539124  0.65226594     0.33700
H556        H  0.41870545  0.20595771  0.66643352     0.30400
H557        H  0.57967475  0.22652530  0.68841744     0.33700
H558        H  0.53347350  0.20987100  0.67497433     0.30400
H559        H  0.42466000  0.28599772  0.72426205     0.38300
H560        H  0.43493015  0.33137778  0.71107036     0.33700
C561        C  0.33773603  0.61061141  0.86734177    -0.20000
C562        C  0.34463622  0.65921148  0.86236004     0.36200
C563        C  0.36381940  0.67744315  0.84751801    -0.26000
C564        C  0.37542413  0.64801058  0.83729887     0.02600
C565        C  0.36693409  0.59865686  0.84199139     0.27500
C566        C  0.34819591  0.58042829  0.85698436    -0.25100
N567        N  0.33164853  0.68980931  0.87235418    -0.82500
H568        H  0.36986417  0.71507780  0.84386108     0.13300
C569        C  0.39567343  0.66971562  0.82169197     0.02600
N570        N  0.37727898  0.56732360  0.83151516    -0.81100
H571        H  0.34274291  0.54307521  0.86069385     0.18100
C572        C  0.44549847  0.68022232  0.81717656    -0.25900
C573        C  0.46669821  0.70347936  0.80281607     0.36100
C574        C  0.43771234  0.71732061  0.79285451    -0.19900
C575        C  0.38766422  0.70619628  0.79740431    -0.25200
C576        C  0.36634168  0.68242875  0.81160940     0.27500
H577        H  0.46798973  0.67042408  0.82493183     0.13300
N578        N  0.51695925  0.71204728  0.79824335    -0.82500
H579        H  0.36481846  0.71598531  0.78979384     0.18100
N580        N  0.31477179  0.67085560  0.81583455    -0.81100
H581        H  0.53325425  0.70021905  0.80693215     0.33700
H582        H  0.51152370  0.68806457  0.78877363     0.38200
H583        H  0.29837131  0.68279846  0.80720568     0.33700
H584        H  0.29175037  0.63038648  0.81664020     0.30400
H585        H  0.36914876  0.53219374  0.83670865     0.33700
H586        H  0.35158531  0.55778680  0.82225738     0.30400
H587        H  0.29153959  0.66873598  0.87426881     0.38300
H588        H  0.33929456  0.72456942  0.86700367     0.33700
C589        C  0.28648306  0.63472975  0.12554035    -0.20000
C590        C  0.33045299  0.67956571  0.13142276     0.36200
C591        C  0.32863514  0.69799472  0.14622877    -0.26000
C592        C  0.28394327  0.67286232  0.15543793     0.02600
C593        C  0.23986399  0.62809351  0.14959758     0.27500
C594        C  0.24170888  0.60931868  0.13476920    -0.25100
N595        N  0.37719666  0.70594812  0.12241583    -0.82500
H596        H  0.36244330  0.73234995  0.15065741     0.13300
C597        C  0.28476104  0.69371367  0.17123438     0.02600
N598        N  0.19351689  0.60178965  0.15875981    -0.81100
H599        H  0.20777184  0.57519743  0.13029454     0.18100
C600        C  0.25009380  0.71141812  0.17506978    -0.25900
C601        C  0.25093163  0.73255498  0.18974402     0.36100
C602        C  0.28781648  0.73674870  0.20089021    -0.19900
C603        C  0.32245554  0.71894206  0.19692376    -0.25200
C604        C  0.32118952  0.69743261  0.18234726     0.27500
H605        H  0.22220145  0.70873462  0.16653865     0.13300
N606        N  0.21394789  0.74901173  0.19333961    -0.82500
H607        H  0.35056679  0.72129171  0.20531774     0.18100
N608        N  0.35652897  0.67878980  0.17882389    -0.81100
H609        H  0.19077551  0.74479970  0.18376890     0.33700
H610        H  0.18892329  0.72379961  0.20175410     0.38200
H611        H  0.38103932  0.68444408  0.18815580     0.33700
H612        H  0.33441158  0.63856647  0.17710545     0.30400
H613        H  0.16448045  0.56988761  0.15278988     0.33700
H614        H  0.20241120  0.58689399  0.16847679     0.30400
H615        H  0.39166183  0.68037100  0.12099369     0.38300
H616        H  0.40576847  0.73833938  0.12832070     0.33700
C617        C  0.26374999  0.52963244  0.95657325    -0.20000
C618        C  0.25919041  0.48419816  0.96347961     0.36200
C619        C  0.26041128  0.48098336  0.97972634    -0.26000
C620        C  0.26634427  0.52233586  0.98910519     0.02600
C621        C  0.26703042  0.56580405  0.98218769     0.27500
C622        C  0.26592202  0.56901757  0.96611709    -0.25100
N623        N  0.25555599  0.44258854  0.95407478    -0.82500
H624        H  0.25928544  0.44732532  0.98504854     0.13300
C625        C  0.27568119  0.52282041  0.00601666     0.02600
N626        N  0.27020455  0.60732319  0.99157963    -0.81100
H627        H  0.26830255  0.60352759  0.96098686     0.18100
C628        C  0.32138870  0.56434899  0.01207105    -0.25900
C629        C  0.32800612  0.57339284  0.02794958     0.36100
C630        C  0.28862276  0.53998508  0.03821688    -0.19900
C631        C  0.24511753  0.49530669  0.03230048    -0.25200
C632        C  0.23808667  0.48653805  0.01624468     0.27500
H633        H  0.35118553  0.59160046  0.00433260     0.13300
N634        N  0.37451530  0.61738904  0.03358801    -0.82500
H635        H  0.21496481  0.46910671  0.04011988     0.18100
N636        N  0.19207687  0.44234421  0.01031779    -0.81100
H637        H  0.40622131  0.61386705  0.02990835     0.33700
H638        H  0.37757266  0.65096907  0.02859810     0.38200
H639        H  0.16846192  0.41938774  0.01932863     0.33700
H640        H  0.17080184  0.45627839  0.00435675     0.30400
H641        H  0.27105169  0.63684835  0.98475712     0.33700
H642        H  0.23619828  0.59212744  0.99813925     0.30400
H643        H  0.29089103  0.45652653  0.94826490     0.38300
H644        H  0.25128675  0.41167739  0.96094177     0.33700
C645        C  0.16274608  0.56794182  0.90671473    -0.20000
C646        C  0.12635822  0.53946668  0.89513237     0.36200
C647        C  0.07553335  0.53109414  0.89614729    -0.26000
C648        C  0.06034856  0.55037714  0.90865856     0.02600
C649        C  0.09747951  0.58134493  0.91982919     0.27500
C650        C  0.14853238  0.59009073  0.91869419    -0.25100
N651        N  0.14087264  0.51868612  0.88239564    -0.82500
H652        H  0.04735185  0.50796617  0.88741395     0.13300
C653        C  0.00510752  0.53637734  0.91026297     0.02600
N654        N  0.08275979  0.60270962  0.93244279    -0.81100
H655        H  0.17652625  0.61194303  0.92761258     0.18100
C656        C  0.97659161  0.50687586  0.92301546    -0.25900
C657        C  0.92467722  0.49446706  0.92531168     0.36100
C658        C  0.90126579  0.51264190  0.91469200    -0.19900
C659        C  0.92943911  0.54076411  0.90170006    -0.25200
C660        C  0.98104689  0.55265254  0.89933899     0.27500
H661        H  0.99521692  0.49399461  0.93128297     0.13300
N662        N  0.89682325  0.46599886  0.93875502    -0.82500
H663        H  0.91137685  0.55454432  0.89351607     0.18100
N664        N  0.00952124  0.58225366  0.88611289    -0.81100
H665        H  0.92071298  0.45812169  0.94579186     0.33700
H666        H  0.86674286  0.42988878  0.93507391     0.38200
H667        H  0.98605419  0.59094040  0.87914498     0.33700
H668        H  0.03986347  0.61781599  0.89004303     0.30400
H669        H  0.11444170  0.62407210  0.93974118     0.33700
H670        H  0.07246997  0.62902195  0.92786860     0.30400
H671        H  0.11615577  0.47835300  0.88222353     0.38300
H672        H  0.13473783  0.53401649  0.87227944     0.33700
C673        C  0.63118154  0.50594017  0.93113617    -0.20000
C674        C  0.58103703  0.46381030  0.92820848     0.36200
C675        C  0.53865645  0.47276249  0.92796600    -0.26000
C676        C  0.54572406  0.52271964  0.93064172     0.02600
C677        C  0.59493652  0.56345417  0.93501806     0.27500
C678        C  0.63704793  0.55446231  0.93534853    -0.25100
N679        N  0.57374892  0.41328207  0.92450264    -0.82500
H680        H  0.50036516  0.44138207  0.92490543     0.13300
C681        C  0.50311869  0.53334200  0.92698328     0.02600
N682        N  0.60255801  0.61445425  0.93826746    -0.81100
H683        H  0.67537298  0.58650791  0.93805440     0.18100
C684        C  0.48373222  0.55281701  0.93836736    -0.25900
C685        C  0.44401138  0.56413135  0.93495174     0.36100
C686        C  0.42377823  0.55578376  0.91989203    -0.19900
C687        C  0.44321640  0.53650538  0.90854249    -0.25200
C688        C  0.48342134  0.52608766  0.91185699     0.27500
H689        H  0.49921123  0.55853635  0.94994259     0.13300
N690        N  0.42307348  0.58247219  0.94676250    -0.82500
H691        H  0.42703660  0.52980553  0.89703522     0.18100
N692        N  0.50472772  0.50860202  0.89991361    -0.81100
H693        H  0.44241168  0.58669143  0.95718235     0.33700
H694        H  0.38436154  0.55377218  0.94854255     0.38200
H695        H  0.48575071  0.50505976  0.88946673     0.33700
H696        H  0.54348599  0.53745474  0.89832216     0.30400
H697        H  0.64111782  0.63989699  0.94142531     0.33700
H698        H  0.59599679  0.62913855  0.92808809     0.30400
H699        H  0.58231219  0.39884853  0.93439212     0.38300
H700        H  0.53474041  0.38740034  0.92193825     0.33700
C701        C  0.71523275  0.45687420  0.87898734    -0.20000
C702        C  0.71681574  0.41413696  0.87227254     0.36200
C703        C  0.69565636  0.39674005  0.85747249    -0.26000
C704        C  0.67255979  0.42078660  0.84920167     0.02600
C705        C  0.67130150  0.46371426  0.85583874     0.27500
C706        C  0.69290348  0.48148289  0.87058993    -0.25100
N707        N  0.74038543  0.38886670  0.88042865    -0.82500
H708        H  0.69691085  0.36398752  0.85235446     0.13300
C709        C  0.65056929  0.40084680  0.83353681     0.02600
N710        N  0.64812299  0.48910617  0.84755992    -0.81100
H711        H  0.69135042  0.51408796  0.87569907     0.18100
C712        C  0.59689488  0.37840082  0.83089881    -0.25900
C713        C  0.57482152  0.35802937  0.81632974     0.36100
C714        C  0.60706769  0.35920104  0.80409668    -0.19900
C715        C  0.66098320  0.38250437  0.80682224    -0.25200
C716        C  0.68293851  0.40351032  0.82128280     0.27500
H717        H  0.57209034  0.37678886  0.84028670     0.13300
N718        N  0.51996632  0.33678266  0.81396565    -0.82500
H719        H  0.68647644  0.38464506  0.79757946     0.18100
N720        N  0.73819824  0.42798371  0.82355658    -0.81100
H721        H  0.50179052  0.33757058  0.82418910     0.33700
H722        H  0.51524684  0.36130162  0.80626757     0.38200
H723        H  0.75668914  0.42682821  0.81344895     0.33700
H724        H  0.75182382  0.46731914  0.82595676     0.30400
H725        H  0.64987858  0.51970220  0.85405342     0.33700
H726        H  0.67044936  0.50578141  0.83769643     0.30400
H727        H  0.77989353  0.41593483  0.88170364     0.38300
H728        H  0.73822694  0.35807497  0.87395081     0.33700
C729        C  0.75420114  0.34951816  0.20841372    -0.20000
C730        C  0.79110064  0.35612882  0.19700127     0.36200
C731        C  0.78940909  0.37687639  0.18247138    -0.26000
C732        C  0.75109166  0.39013387  0.17897694     0.02600
C733        C  0.71346138  0.38211560  0.19015513     0.27500
C734        C  0.71541380  0.36205268  0.20466523    -0.25100
N735        N  0.83109695  0.34350989  0.20028963    -0.82500
H736        H  0.81812837  0.38282333  0.17380792     0.13300
C737        C  0.75078254  0.41296441  0.16366661     0.02600
N738        N  0.67383613  0.39525559  0.18679652    -0.81100
H739        H  0.68663813  0.35687145  0.21321756     0.18100
C740        C  0.71095521  0.38363859  0.15313427    -0.25900
C741        C  0.70868823  0.40417465  0.13868464     0.36100
C742        C  0.74738368  0.45537033  0.13458347    -0.19900
C743        C  0.78655706  0.48501735  0.14533527    -0.25200
C744        C  0.78858631  0.46438258  0.15980418     0.27500
H745        H  0.68143478  0.34447364  0.15624018     0.13300
N746        N  0.66694687  0.37326261  0.12824140    -0.82500
H747        H  0.81635331  0.52415457  0.14233038     0.18100
N748        N  0.82886815  0.49544799  0.17062548    -0.81100
H749        H  0.64218082  0.33652639  0.13292777     0.33700
H750        H  0.64480437  0.39164711  0.12694040     0.38200
H751        H  0.85382838  0.53228572  0.16603878     0.33700
H752        H  0.81113246  0.50130246  0.18022432     0.30400
H753        H  0.64884926  0.38676588  0.19619118     0.33700
H754        H  0.69218911  0.43553824  0.18516165     0.30400
H755        H  0.81310581  0.30309736  0.20152126     0.38300
H756        H  0.85646423  0.35307266  0.19094596     0.33700
C757        C  0.15272064  0.57807616  0.07217063    -0.20000
C758        C  0.11151467  0.53056130  0.06660465     0.36200
C759        C  0.06053855  0.52190556  0.06705380    -0.26000
C760        C  0.05011779  0.56034959  0.07249781     0.02600
C761        C  0.09207252  0.61015966  0.07622111     0.27500
C762        C  0.14316138  0.61847841  0.07611172    -0.25100
N763        N  0.12149763  0.49054355  0.06105799    -0.82500
H764        H  0.02860074  0.48392151  0.06399778     0.13300
C765        C  0.99550840  0.54574376  0.07616216     0.02600
N766        N  0.08228154  0.65128177  0.08069729    -0.81100
H767        H  0.17499036  0.65534528  0.08002951     0.18100
C768        C  0.98400268  0.55413792  0.09118924    -0.25900
C769        C  0.93323206  0.54045105  0.09549423     0.36100
C770        C  0.89272769  0.51692508  0.08463062    -0.19900
C771        C  0.90345667  0.50606688  0.06980219    -0.25200
C772        C  0.95469402  0.52083654  0.06537607     0.27500
H773        H  0.01492736  0.57157562  0.09962692     0.13300
N774        N  0.92260904  0.55101618  0.11081750    -0.82500
H775        H  0.87236515  0.48891919  0.06140696     0.18100
N776        N  0.96562959  0.51207910  0.04989821    -0.81100
H777        H  0.95669546  0.56889447  0.11737137     0.33700
H778        H  0.89799636  0.51527657  0.11606921     0.38200
H779        H  0.93141560  0.49349706  0.04342913     0.33700
H780        H  0.98895152  0.54848897  0.04482086     0.30400
H781        H  0.11714173  0.68524386  0.08318660     0.33700
H782        H  0.06596321  0.65972478  0.07122755     0.30400
H783        H  0.14512420  0.50514842  0.05131154     0.38300
H784        H  0.08704646  0.45796856  0.05745083     0.33700
C785        C  0.62650358  0.52242856  0.09511448    -0.20000
C786        C  0.61929949  0.55017649  0.10719175     0.36200
C787        C  0.57879527  0.56184777  0.10627910    -0.26000
C788        C  0.54566093  0.54670654  0.09349763     0.02600
C789        C  0.55192047  0.51789290  0.08159039     0.27500
C790        C  0.59219142  0.50574539  0.08255291    -0.25100
N791        N  0.65339832  0.56661108  0.12029712    -0.82500
H792        H  0.57328916  0.58333102  0.11548621     0.13300
C793        C  0.50346065  0.55989277  0.09296115     0.02600
N794        N  0.51774135  0.50173352  0.06850995    -0.81100
H795        H  0.59808841  0.48500432  0.07320381     0.18100
C796        C  0.50687333  0.59816452  0.08272345    -0.25900
C797        C  0.46623773  0.60978134  0.08148339     0.36100
C798        C  0.42079467  0.58147553  0.09044815    -0.19900
C799        C  0.41867066  0.54463080  0.10109893    -0.25200
C800        C  0.45950856  0.53369143  0.10246918     0.27500
H801        H  0.54118602  0.61862781  0.07558647     0.13300
N802        N  0.47017496  0.64845220  0.07071322    -0.82500
H803        H  0.38428702  0.52319226  0.10814500     0.18100
N804        N  0.45609109  0.49521800  0.11324175    -0.81100
H805        H  0.50492153  0.66361102  0.06450703     0.33700
H806        H  0.47230952  0.67942858  0.07707452     0.38200
H807        H  0.42139123  0.47970524  0.11946600     0.33700
H808        H  0.45476957  0.46449697  0.10692461     0.30400
H809        H  0.52782500  0.48136759  0.06069322     0.33700
H810        H  0.48029786  0.47555569  0.07241975     0.30400
H811        H  0.64811506  0.53310452  0.12594265     0.38300
H812        H  0.64303200  0.58673817  0.12811910     0.33700
C813        C  0.77183523  0.56389629  0.04779867    -0.20000
C814        C  0.73001367  0.53699205  0.03747774     0.36200
C815        C  0.73924731  0.54230756  0.02156692    -0.26000
C816        C  0.78935433  0.57400813  0.01569418     0.02600
C817        C  0.83041063  0.60458795  0.02589967     0.27500
C818        C  0.82114770  0.59952672  0.04193820    -0.25100
N819        N  0.67862888  0.50255405  0.04325528    -0.82500
H820        H  0.70767234  0.51947860  0.01367418     0.13300
C821        C  0.79827973  0.56860281  0.99911319     0.02600
N822        N  0.88160483  0.63869689  0.01998708    -0.81100
H823        H  0.85324635  0.62029461  0.04984163     0.18100
C824        C  0.80343782  0.60636060  0.98841257    -0.25900
C825        C  0.80296675  0.59734124  0.97242134     0.36100
C826        C  0.79789962  0.54970837  0.96708744    -0.19900
C827        C  0.79553095  0.51338502  0.97796172    -0.25200
C828        C  0.79578243  0.52237937  0.99384510     0.27500
H829        H  0.80515577  0.64174094  0.99253509     0.13300
N830        N  0.80501543  0.63526864  0.96168166    -0.82500
H831        H  0.79201373  0.47699960  0.97405218     0.18100
N832        N  0.79169872  0.48390292  0.00473169    -0.81100
H833        H  0.80988921  0.66837708  0.96746806     0.33700
H834        H  0.76887157  0.61909657  0.95620469     0.38200
H835        H  0.78952903  0.45173896  0.99905646     0.33700
H836        H  0.82600037  0.50046291  0.01119079     0.30400
H837        H  0.90735989  0.65847016  0.02897905     0.33700
H838        H  0.89480835  0.61560070  0.01473593     0.30400
H839        H  0.66659040  0.52518137  0.04934755     0.38300
H840        H  0.65232427  0.48526570  0.03419613     0.33700
loop_ 
_geom_bond_atom_site_label_1 
_geom_bond_atom_site_label_2 
_geom_bond_distance 
_geom_bond_site_symmetry_2 
_ccdc_geom_bond_type 
O1            V9   1.915       .  S
O1           C11   1.268       .  A
O2            V9   1.916       .  S
O2           C12   1.268       .  A
O3            V9   1.901       .  S
O3           C13   1.264       .  A
O4            V9   1.885       .  S
O4           C14   1.261       .  A
O5           V10   1.924       .  S
O5           C14   1.270       .  A
O6           V10   1.919       .  S
O6           C13   1.270       .  A
O7           V10   1.879       .  S
O7           C12   1.259       .  A
O8           V10   1.889       .  S
O8           C11   1.261       .  A
V9           V10   2.086       .  T
C11         C785   1.480       .  S
C12         C770   1.473       .  S
C13         C742   1.497       .  S
C14         C813   1.484       .  S
O15          V23   1.912       .  S
O15          C25   1.267       .  A
O16          V23   1.912       .  S
O16          C26   1.267       .  A
O17          V23   1.907       .  S
O17          C27   1.266       .  A
O18          V23   1.900       .  S
O18          C28   1.265       .  A
O19          V24   1.915       .  S
O19          C28   1.268       .  A
O20          V24   1.915       .  S
O20          C27   1.268       .  A
O21          V24   1.876       .  S
O21          C26   1.260       .  A
O22          V24   1.887       .  S
O22          C25   1.261       .  A
V23          V24   2.084       .  T
C25         C658   1.479       .  S
C26         C673   1.476       .  S
C27         C701   1.493       .  S
C28         C826   1.495       .  S
O29          V37   1.914       .  S
O29          C39   1.268       .  A
O30          V37   1.916       .  S
O30          C40   1.268       .  A
O31          V37   1.900       .  S
O31          C41   1.264       .  A
O32          V37   1.894       .  S
O32          C42   1.264       .  A
O33          V38   1.920       .  S
O33          C42   1.269       .  A
O34          V38   1.922       .  S
O34          C41   1.270       .  A
O35          V38   1.880       .  S
O35          C40   1.260       .  A
O36          V38   1.890       .  S
O36          C39   1.263       .  A
V37          V38   2.084       .  T
C39         C798   1.488       .  S
C40         C757   1.477       .  S
C41         C589   1.495       .  S
C42         C630   1.490       .  S
O43          V51   1.906       .  S
O43          C53   1.266       .  A
O44          V51   1.905       .  S
O44          C54   1.265       .  A
O45          V51   1.893       .  S
O45          C55   1.263       .  A
O46          V51   1.884       .  S
O46          C56   1.262       .  A
O47          V52   1.926       .  S
O47          C56   1.271       .  A
O48          V52   1.921       .  S
O48          C55   1.270       .  A
O49          V52   1.884       .  S
O49          C54   1.259       .  A
O50          V52   1.891       .  S
O50          C53   1.262       .  A
V51          V52   2.087       .  T
C53         C645   1.474       .  S
C54         C686   1.465       .  S
C55         C561   1.491       .  S
C56         C617   1.492       .  S
O57          V65   1.908       .  S
O57          C67   1.267       .  A
O58          V65   1.907       .  S
O58          C68   1.266       .  A
O59          V65   1.901       .  S
O59          C69   1.265       .  A
O60          V65   1.893       .  S
O60          C70   1.262       .  A
O61          V66   1.926       .  S
O61          C70   1.271       .  A
O62          V66   1.923       .  S
O62          C69   1.271       .  A
O63          V66   1.879       .  S
O63          C68   1.259       .  A
O64          V66   1.891       .  S
O64          C67   1.263       .  A
V65          V66   2.084       .  T
C67         C477   1.485       .  S
C68         C505   1.464       .  S
C69         C714   1.505       .  S
C70         C533   1.490       .  S
O71          V79   1.913       .  S
O71          C81   1.268       .  A
O72          V79   1.911       .  S
O72          C82   1.267       .  A
O73          V79   1.898       .  S
O73          C83   1.263       .  A
O74          V79   1.894       .  S
O74          C84   1.263       .  A
O75          V80   1.925       .  S
O75          C84   1.271       .  A
O76          V80   1.927       .  S
O76          C83   1.271       .  A
O77          V80   1.875       .  S
O77          C82   1.259       .  A
O78          V80   1.886       .  S
O78          C81   1.262       .  A
V79          V80   2.081       .  T
C81         C434   1.489       .  S
C82         C393   1.467       .  S
C83         C449   1.497       .  S
C84         C546   1.503       .  S
O85          V93   1.916       .  S
O85          C95   1.269       .  A
O86          V93   1.916       .  S
O86          C96   1.268       .  A
O87          V93   1.893       .  S
O87          C97   1.263       .  A
O88          V93   1.890       .  S
O88          C98   1.262       .  A
O89          V94   1.919       .  S
O89          C98   1.269       .  A
O90          V94   1.920       .  S
O90          C97   1.270       .  A
O91          V94   1.870       .  S
O91          C96   1.258       .  A
O92          V94   1.882       .  S
O92          C95   1.260       .  A
V93          V94   2.085       .  T
C95         C490   1.479       .  S
C96         C518   1.472       .  S
C97         C574   1.493       .  S
C98         C365   1.489       .  S
O99         V107   1.908       .  S
O99         C109   1.267       .  A
O100        V107   1.908       .  S
O100        C110   1.265       .  A
O101        V107   1.899       .  S
O101        C111   1.265       .  A
O102        V107   1.884       .  S
O102        C112   1.261       .  A
O103        V108   1.928       .  S
O103        C112   1.271       .  A
O104        V108   1.928       .  S
O104        C111   1.272       .  A
O105        V108   1.877       .  S
O105        C110   1.258       .  A
O106        V108   1.889       .  S
O106        C109   1.261       .  A
V107        V108   2.086       .  T
C109        C421   1.478       .  S
C110        C406   1.459       .  S
C111        C337   1.509       .  S
C112        C378   1.488       .  S
O113        V121   1.906       .  S
O113        C123   1.267       .  A
O114        V121   1.900       .  S
O114        C124   1.263       .  A
O115        V121   1.902       .  S
O115        C125   1.266       .  A
O116        V121   1.898       .  S
O116        C126   1.265       .  A
O117        V122   1.928       .  S
O117        C126   1.271       .  A
O118        V122   1.921       .  S
O118        C125   1.270       .  A
O119        V122   1.873       .  S
O119        C124   1.257       .  A
O120        V122   1.883       .  S
O120        C123   1.260       .  A
V121        V122   2.085       .  T
C123        C253   1.479       .  S
C124        C281   1.450       .  S
C125        C602   1.504       .  S
C126        C322   1.504       .  S
O127        V135   1.907       .  S
O127        C137   1.266       .  A
O128        V135   1.909       .  S
O128        C138   1.266       .  A
O129        V135   1.906       .  S
O129        C139   1.265       .  A
O130        V135   1.901       .  S
O130        C140   1.263       .  A
O131        V136   1.927       .  S
O131        C140   1.270       .  A
O132        V136   1.925       .  S
O132        C139   1.271       .  A
O133        V136   1.869       .  S
O133        C138   1.257       .  A
O134        V136   1.884       .  S
O134        C137   1.261       .  A
V135        V136   2.087       .  T
C137        C225   1.479       .  S
C138        C210   1.459       .  S
C139        C350   1.500       .  S
C140        C309   1.490       .  S
O141        V149   1.903       .  S
O141        C151   1.265       .  A
O142        V149   1.907       .  S
O142        C152   1.265       .  A
O143        V149   1.891       .  S
O143        C153   1.263       .  A
O144        V149   1.891       .  S
O144        C154   1.263       .  A
O145        V150   1.921       .  S
O145        C154   1.269       .  A
O146        V150   1.927       .  S
O146        C153   1.272       .  A
O147        V150   1.871       .  S
O147        C152   1.257       .  A
O148        V150   1.879       .  S
O148        C151   1.259       .  A
V149        V150   2.088       .  T
C151        C266   1.462       .  S
C152        C294   1.459       .  S
C153        C729   1.499       .  S
C154        C182   1.485       .  S
O155        V163   1.908       .  S
O155        C165   1.267       .  A
O156        V163   1.906       .  S
O156        C166   1.266       .  A
O157        V163   1.899       .  S
O157        C167   1.265       .  A
O158        V163   1.891       .  S
O158        C168   1.263       .  A
O159        V164   1.921       .  S
O159        C168   1.270       .  A
O160        V164   1.922       .  S
O160        C167   1.270       .  A
O161        V164   1.873       .  S
O161        C166   1.259       .  A
O162        V164   1.883       .  S
O162        C165   1.260       .  A
V163        V164   2.085       .  T
C165        C238   1.472       .  S
C166        C197   1.470       .  S
C167        C462   1.505       .  S
C168        C169   1.493       .  S
C169        C170   1.417       .  A
C169        C174   1.407       .  A
C170        C171   1.415       .  A
C170        N175   1.437       .  S
C171        C172   1.405       .  A
C171        H176   1.083       .  S
C172        C177   1.491       .  S
C172        C173   1.409       .  A
C173        C174   1.403       .  A
C173        N178   1.439       .  S
C174        H179   1.084       .  S
N175        H195   1.046       .  S
N175        H196   1.046       .  S
C177        C180   1.402       .  A
C177        C184   1.412       .  A
N178        H193   1.046       .  S
N178        H194   1.045       .  S
C180        C181   1.404       .  A
C180        H185   1.084       .  S
C181        C182   1.413       .  A
C181        N186   1.438       .  S
C182        C183   1.406       .  A
C183        C184   1.414       .  A
C183        H187   1.083       .  S
C184        N188   1.437       .  S
N186        H189   1.045       .  S
N186        H190   1.045       .  S
N188        H191   1.045       .  S
N188        H192   1.046       .  S
C197        C198   1.406       .  A
C197        C202   1.406       .  A
C198        C199   1.400       .  A
C198        N203   1.432       .  S
C199        C200   1.405       .  A
C199        H204   1.084       .  S
C200        C205   1.473       .  S
C200        C201   1.406       .  A
C201        C202   1.398       .  A
C201        N206   1.438       .  S
C202        H207   1.084       .  S
N203        H223   1.046       .  S
N203        H224   1.045       .  S
C205        C208   1.405   1_545  A
C205        C212   1.408   1_545  A
N206        H221   1.046       .  S
N206        H222   1.045       .  S
C208        C209   1.406       .  A
C208        H213   1.083       .  S
C209        C210   1.407       .  A
C209        N214   1.437       .  S
C210        C211   1.400       .  A
C211        C212   1.394       .  A
C211        H215   1.085       .  S
C212        N216   1.439   1_565  S
N214        H217   1.045       .  S
N214        H218   1.046       .  S
N216        H219   1.046       .  S
N216        H220   1.046       .  S
C225        C226   1.414       .  A
C225        C230   1.407       .  A
C226        C227   1.407       .  A
C226        N231   1.437       .  S
C227        C228   1.402       .  A
C227        H232   1.084       .  S
C228        C233   1.473   1_455  S
C228        C229   1.404       .  A
C229        C230   1.401       .  A
C229        N234   1.438       .  S
C230        H235   1.084       .  S
N231        H251   1.045       .  S
N231        H252   1.046       .  S
C233        C236   1.399       .  A
C233        C240   1.408       .  A
N234        H249   1.046       .  S
N234        H250   1.045   1_455  S
C236        C237   1.402       .  A
C236        H241   1.084       .  S
C237        C238   1.412       .  A
C237        N242   1.438       .  S
C238        C239   1.403       .  A
C239        C240   1.405       .  A
C239        H243   1.084       .  S
C240        N244   1.437       .  S
N242        H245   1.046       .  S
N242        H246   1.046       .  S
N244        H247   1.045       .  S
N244        H248   1.046       .  S
C253        C254   1.416       .  A
C253        C258   1.403       .  A
C254        C255   1.400   1_565  A
C254        N259   1.439       .  S
C255        C256   1.400       .  A
C255        H260   1.083       .  S
C256        C261   1.484       .  S
C256        C257   1.414   1_545  A
C257        C258   1.405       .  A
C257        N262   1.438       .  S
C258        H263   1.084       .  S
N259        H279   1.045       .  S
N259        H280   1.046       .  S
C261        C264   1.403       .  A
C261        C268   1.416       .  A
N262        H277   1.045       .  S
N262        H278   1.046   1_565  S
C264        C265   1.399       .  A
C264        H269   1.083       .  S
C265        C266   1.409       .  A
C265        N270   1.439       .  S
C266        C267   1.398       .  A
C267        C268   1.404       .  A
C267        H271   1.084       .  S
C268        N272   1.438       .  S
N270        H273   1.045       .  S
N270        H274   1.045       .  S
N272        H275   1.046       .  S
N272        H276   1.045       .  S
C281        C282   1.404       .  A
C281        C286   1.398       .  A
C282        C283   1.398       .  A
C282        N287   1.438       .  S
C283        C284   1.404       .  A
C283        H288   1.084       .  S
C284        C289   1.475   1_455  S
C284        C285   1.412       .  A
C285        C286   1.400       .  A
C285        N290   1.438       .  S
C286        H291   1.084       .  S
N287        H307   1.045       .  S
N287        H308   1.046       .  S
C289        C292   1.400       .  A
C289        C296   1.414       .  A
N290        H305   1.046       .  S
N290        H306   1.046       .  S
C292        C293   1.397       .  A
C292        H297   1.084   1_655  S
C293        C294   1.409       .  A
C293        N298   1.439       .  S
C294        C295   1.398       .  A
C295        C296   1.403       .  A
C295        H299   1.084       .  S
C296        N300   1.438       .  S
N298        H301   1.045       .  S
N298        H302   1.046       .  S
N300        H303   1.046       .  S
N300        H304   1.045       .  S
C309        C310   1.408       .  A
C309        C314   1.405       .  A
C310        C311   1.409       .  A
C310        N315   1.432       .  S
C311        C312   1.408       .  A
C311        H316   1.084       .  S
C312        C317   1.506       .  S
C312        C313   1.416       .  A
C313        C314   1.417       .  A
C313        N318   1.437       .  S
C314        H319   1.084       .  S
N315        H335   1.045       .  S
N315        H336   1.046       .  S
C317        C320   1.410       .  A
C317        C324   1.412       .  A
N318        H333   1.046       .  S
N318        H334   1.045       .  S
C320        C321   1.420       .  A
C320        H325   1.083       .  S
C321        C322   1.417       .  A
C321        N326   1.437       .  S
C322        C323   1.408       .  A
C323        C324   1.407       .  A
C323        H327   1.083       .  S
C324        N328   1.438       .  S
N326        H329   1.046       .  S
N326        H330   1.046       .  S
N328        H331   1.045       .  S
N328        H332   1.046       .  S
C337        C338   1.419       .  A
C337        C342   1.411       .  A
C338        C339   1.419       .  A
C338        N343   1.437       .  S
C339        C340   1.407       .  A
C339        H344   1.083       .  S
C340        C345   1.503       .  S
C340        C341   1.410       .  A
C341        C342   1.410       .  A
C341        N346   1.438       .  S
C342        H347   1.083       .  S
N343        H363   1.046       .  S
N343        H364   1.045       .  S
C345        C348   1.404       .  A
C345        C352   1.415       .  A
N346        H361   1.045       .  S
N346        H362   1.046       .  S
C348        C349   1.409       .  A
C348        H353   1.084       .  S
C349        C350   1.413       .  A
C349        N354   1.432       .  S
C350        C351   1.409       .  A
C351        C352   1.418       .  A
C351        H355   1.083       .  S
C352        N356   1.437       .  S
N354        H357   1.046       .  S
N354        H358   1.045       .  S
N356        H359   1.046       .  S
N356        H360   1.045       .  S
C365        C366   1.416       .  A
C365        C370   1.405       .  A
C366        C367   1.414       .  A
C366        N371   1.437       .  S
C367        C368   1.404       .  A
C367        H372   1.083       .  S
C368        C373   1.489       .  S
C368        C369   1.409       .  A
C369        C370   1.404       .  A
C369        N374   1.438       .  S
C370        H375   1.084       .  S
N371        H391   1.046       .  S
N371        H392   1.045       .  S
C373        C376   1.400       .  A
C373        C380   1.412       .  A
N374        H389   1.046       .  S
N374        H390   1.045       .  S
C376        C377   1.400       .  A
C376        H381   1.084       .  S
C377        C378   1.413       .  A
C377        N382   1.433       .  S
C378        C379   1.407       .  A
C379        C380   1.416       .  A
C379        H383   1.083       .  S
C380        N384   1.437       .  S
N382        H385   1.045       .  S
N382        H386   1.047       .  S
N384        H387   1.045       .  S
N384        H388   1.046       .  S
C393        C394   1.407       .  A
C393        C398   1.403       .  A
C394        C395   1.405       .  A
C394        N399   1.437       .  S
C395        C396   1.406       .  A
C395        H400   1.084       .  S
C396        C401   1.479       .  S
C396        C397   1.408       .  A
C397        C398   1.399       .  A
C397        N402   1.438       .  S
C398        H403   1.084       .  S
N399        H419   1.045       .  S
N399        H420   1.046       .  S
C401        C404   1.403   1_545  A
C401        C408   1.412       .  A
N402        H417   1.046       .  S
N402        H418   1.046       .  S
C404        C405   1.404       .  A
C404        H409   1.084   1_565  S
C405        C406   1.408       .  A
C405        N410   1.438       .  S
C406        C407   1.398       .  A
C407        C408   1.401   1_565  A
C407        H411   1.084       .  S
C408        N412   1.438       .  S
N410        H413   1.045       .  S
N410        H414   1.046       .  S
N412        H415   1.046       .  S
N412        H416   1.045       .  S
C421        C422   1.412       .  A
C421        C426   1.405       .  A
C422        C423   1.405       .  A
C422        N427   1.438       .  S
C423        C424   1.400       .  A
C423        H428   1.084       .  S
C424        C429   1.478       .  S
C424        C425   1.409       .  A
C425        C426   1.407       .  A
C425        N430   1.438       .  S
C426        H431   1.084       .  S
N427        H447   1.045       .  S
N427        H448   1.046       .  S
C429        C432   1.402       .  A
C429        C436   1.405       .  A
N430        H445   1.046       .  S
N430        H446   1.045       .  S
C432        C433   1.411       .  A
C432        H437   1.084       .  S
C433        C434   1.416       .  A
C433        N438   1.437       .  S
C434        C435   1.408       .  A
C435        C436   1.402       .  A
C435        H439   1.083       .  S
C436        N440   1.439       .  S
N438        H441   1.046       .  S
N438        H442   1.046       .  S
N440        H443   1.045       .  S
N440        H444   1.045       .  S
C449        C450   1.418       .  A
C449        C454   1.408       .  A
C450        C451   1.410       .  A
C450        N455   1.438       .  S
C451        C452   1.401       .  A
C451        H456   1.084       .  S
C452        C457   1.495       .  S
C452        C453   1.411       .  A
C453        C454   1.416       .  A
C453        N458   1.437       .  S
C454        H459   1.083       .  S
N455        H475   1.045       .  S
N455        H476   1.046       .  S
C457        C460   1.405       .  A
C457        C464   1.407       .  A
N458        H473   1.046       .  S
N458        H474   1.045       .  S
C460        C461   1.416       .  A
C460        H465   1.083       .  S
C461        C462   1.419       .  A
C461        N466   1.437       .  S
C462        C463   1.411       .  A
C463        C464   1.408       .  A
C463        H467   1.083       .  S
C464        N468   1.438       .  S
N466        H469   1.046       .  S
N466        H470   1.045       .  S
N468        H471   1.046       .  S
N468        H472   1.046       .  S
C477        C478   1.415       .  A
C477        C482   1.408       .  A
C478        C479   1.407       .  A
C478        N483   1.438       .  S
C479        C480   1.401       .  A
C479        H484   1.084       .  S
C480        C485   1.478       .  S
C480        C481   1.406       .  A
C481        C482   1.405       .  A
C481        N486   1.438       .  S
C482        H487   1.084       .  S
N483        H503   1.046       .  S
N483        H504   1.045       .  S
C485        C488   1.398   1_545  A
C485        C492   1.410   1_545  A
N486        H501   1.045       .  S
N486        H502   1.046       .  S
C488        C489   1.404       .  A
C488        H493   1.084   1_565  S
C489        C490   1.415       .  A
C489        N494   1.438       .  S
C490        C491   1.403       .  A
C491        C492   1.408       .  A
C491        H495   1.084       .  S
C492        N496   1.437       .  S
N494        H497   1.045       .  S
N494        H498   1.046       .  S
N496        H499   1.046       .  S
N496        H500   1.045   1_565  S
C505        C506   1.409       .  A
C505        C510   1.400       .  A
C506        C507   1.405       .  A
C506        N511   1.438       .  S
C507        C508   1.404       .  A
C507        H512   1.084       .  S
C508        C513   1.478       .  S
C508        C509   1.410       .  A
C509        C510   1.399       .  A
C509        N514   1.438       .  S
C510        H515   1.084       .  S
N511        H531   1.045       .  S
N511        H532   1.046       .  S
C513        C516   1.406       .  A
C513        C520   1.407       .  A
N514        H529   1.046       .  S
N514        H530   1.046       .  S
C516        C517   1.406       .  A
C516        H521   1.084       .  S
C517        C518   1.408       .  A
C517        N522   1.437       .  S
C518        C519   1.406       .  A
C519        C520   1.399       .  A
C519        H523   1.084       .  S
C520        N524   1.438       .  S
N522        H525   1.046       .  S
N522        H526   1.045       .  S
N524        H527   1.046       .  S
N524        H528   1.045       .  S
C533        C534   1.414       .  A
C533        C538   1.404       .  A
C534        C535   1.416       .  A
C534        N539   1.437       .  S
C535        C536   1.407       .  A
C535        H540   1.083       .  S
C536        C541   1.497       .  S
C536        C537   1.412       .  A
C537        C538   1.406       .  A
C537        N542   1.438       .  S
C538        H543   1.084       .  S
N539        H559   1.045       .  S
N539        H560   1.046       .  S
C541        C544   1.401       .  A
C541        C548   1.412       .  A
N542        H557   1.046       .  S
N542        H558   1.045       .  S
C544        C545   1.406       .  A
C544        H549   1.084       .  S
C545        C546   1.420       .  A
C545        N550   1.438       .  S
C546        C547   1.411       .  A
C547        C548   1.417       .  A
C547        H551   1.083       .  S
C548        N552   1.437       .  S
N550        H553   1.046       .  S
N550        H554   1.046       .  S
N552        H555   1.045       .  S
N552        H556   1.046       .  S
C561        C562   1.416       .  A
C561        C566   1.407       .  A
C562        C563   1.405       .  A
C562        N567   1.438       .  S
C563        C564   1.401       .  A
C563        H568   1.084       .  S
C564        C569   1.493       .  S
C564        C565   1.413       .  A
C565        C566   1.414       .  A
C565        N570   1.437       .  S
C566        H571   1.083       .  S
N567        H587   1.046       .  S
N567        H588   1.046       .  S
C569        C572   1.405       .  A
C569        C576   1.410       .  A
N570        H585   1.046       .  S
N570        H586   1.046       .  S
C572        C573   1.413       .  A
C572        H577   1.083       .  S
C573        C574   1.415       .  A
C573        N578   1.437       .  S
C574        C575   1.407       .  A
C575        C576   1.406       .  A
C575        H579   1.083       .  S
C576        N580   1.438       .  S
N578        H581   1.046       .  S
N578        H582   1.046       .  S
N580        H583   1.046       .  S
N580        H584   1.045       .  S
C589        C590   1.415       .  A
C589        C594   1.407       .  A
C590        C591   1.409       .  A
C590        N595   1.438       .  S
C591        C592   1.404       .  A
C591        H596   1.084       .  S
C592        C597   1.501       .  S
C592        C593   1.415       .  A
C593        C594   1.416       .  A
C593        N598   1.437       .  S
C594        H599   1.084       .  S
N595        H615   1.046       .  S
N595        H616   1.046       .  S
C597        C600   1.405       .  A
C597        C604   1.411       .  A
N598        H613   1.046       .  S
N598        H614   1.045       .  S
C600        C601   1.416       .  A
C600        H605   1.083       .  S
C601        C602   1.419       .  A
C601        N606   1.437       .  S
C602        C603   1.410       .  A
C603        C604   1.410       .  A
C603        H607   1.083       .  S
C604        N608   1.438       .  S
N606        H609   1.046       .  S
N606        H610   1.045       .  S
N608        H611   1.045       .  S
N608        H612   1.046       .  S
C617        C618   1.416       .  A
C617        C622   1.406       .  A
C618        C619   1.417       .  A
C618        N623   1.437       .  S
C619        C620   1.407       .  A
C619        H624   1.083       .  S
C620        C625   1.495   1_556  S
C620        C621   1.410       .  A
C621        C622   1.402       .  A
C621        N626   1.439       .  S
C622        H627   1.084       .  S
N623        H643   1.045       .  S
N623        H644   1.046       .  S
C625        C628   1.403       .  A
C625        C632   1.413       .  A
N626        H641   1.046       .  S
N626        H642   1.046       .  S
C628        C629   1.401       .  A
C628        H633   1.084       .  S
C629        C630   1.411       .  A
C629        N634   1.433       .  S
C630        C631   1.408       .  A
C631        C632   1.416       .  A
C631        H635   1.083       .  S
C632        N636   1.437       .  S
N634        H637   1.046       .  S
N634        H638   1.046       .  S
N636        H639   1.045       .  S
N636        H640   1.046       .  S
C645        C646   1.409       .  A
C645        C650   1.402       .  A
C646        C647   1.402       .  A
C646        N651   1.432       .  S
C647        C648   1.402       .  A
C647        H652   1.084       .  S
C648        C653   1.482       .  S
C648        C649   1.411       .  A
C649        C650   1.406       .  A
C649        N654   1.437       .  S
C650        H655   1.084       .  S
N651        H671   1.045       .  S
N651        H672   1.046       .  S
C653        C656   1.404   1_455  A
C653        C660   1.408   1_455  A
N654        H669   1.046       .  S
N654        H670   1.045       .  S
C656        C657   1.407       .  A
C656        H661   1.084       .  S
C657        C658   1.411       .  A
C657        N662   1.437       .  S
C658        C659   1.405       .  A
C659        C660   1.404       .  A
C659        H663   1.084       .  S
C660        N664   1.438   1_655  S
N662        H665   1.045       .  S
N662        H666   1.045       .  S
N664        H667   1.046   1_455  S
N664        H668   1.046       .  S
C673        C674   1.410       .  A
C673        C678   1.406       .  A
C674        C675   1.406       .  A
C674        N679   1.437       .  S
C675        C676   1.405       .  A
C675        H680   1.084       .  S
C676        C681   1.479       .  S
C676        C677   1.407       .  A
C677        C678   1.399       .  A
C677        N682   1.438       .  S
C678        H683   1.084       .  S
N679        H699   1.045       .  S
N679        H700   1.046       .  S
C681        C684   1.404       .  A
C681        C688   1.411       .  A
N682        H697   1.046       .  S
N682        H698   1.045       .  S
C684        C685   1.406       .  A
C684        H689   1.084       .  S
C685        C686   1.410       .  A
C685        N690   1.438       .  S
C686        C687   1.399       .  A
C687        C688   1.400       .  A
C687        H691   1.084       .  S
C688        N692   1.438       .  S
N690        H693   1.046       .  S
N690        H694   1.046       .  S
N692        H695   1.046       .  S
N692        H696   1.046       .  S
C701        C702   1.414       .  A
C701        C706   1.406       .  A
C702        C703   1.412       .  A
C702        N707   1.438       .  S
C703        C704   1.405       .  A
C703        H708   1.084       .  S
C704        C709   1.498       .  S
C704        C705   1.412       .  A
C705        C706   1.413       .  A
C705        N710   1.437       .  S
C706        H711   1.084       .  S
N707        H727   1.046       .  S
N707        H728   1.046       .  S
C709        C712   1.405       .  A
C709        C716   1.409       .  A
N710        H725   1.046       .  S
N710        H726   1.045       .  S
C712        C713   1.416       .  A
C712        H717   1.083       .  S
C713        C714   1.419       .  A
C713        N718   1.437       .  S
C714        C715   1.411       .  A
C715        C716   1.410       .  A
C715        H719   1.083       .  S
C716        N720   1.438       .  S
N718        H721   1.046       .  S
N718        H722   1.046       .  S
N720        H723   1.045       .  S
N720        H724   1.046       .  S
C729        C730   1.416       .  A
C729        C734   1.410       .  A
C730        C731   1.416       .  A
C730        N735   1.437       .  S
C731        C732   1.406       .  A
C731        H736   1.083       .  S
C732        C737   1.494       .  S
C732        C733   1.408       .  A
C733        C734   1.407       .  A
C733        N738   1.438       .  S
C734        H739   1.083       .  S
N735        H755   1.045       .  S
N735        H756   1.046       .  S
C737        C740   1.403       .  A
C737        C744   1.411       .  A
N738        H753   1.046       .  S
N738        H754   1.045       .  S
C740        C741   1.411       .  A
C740        H745   1.084       .  S
C741        C742   1.418       .  A
C741        N746   1.438       .  S
C742        C743   1.407       .  A
C743        C744   1.412       .  A
C743        H747   1.083       .  S
C744        N748   1.437       .  S
N746        H749   1.046       .  S
N746        H750   1.046       .  S
N748        H751   1.046       .  S
N748        H752   1.046       .  S
C757        C758   1.413       .  A
C757        C762   1.401       .  A
C758        C759   1.402       .  A
C758        N763   1.439       .  S
C759        C760   1.401       .  A
C759        H764   1.083       .  S
C760        C765   1.488   1_455  S
C760        C761   1.415       .  A
C761        C762   1.408       .  A
C761        N766   1.437       .  S
C762        H767   1.084       .  S
N763        H783   1.046       .  S
N763        H784   1.045       .  S
C765        C768   1.403       .  A
C765        C772   1.414       .  A
N766        H781   1.046       .  S
N766        H782   1.046       .  S
C768        C769   1.401       .  A
C768        H773   1.084   1_655  S
C769        C770   1.410       .  A
C769        N774   1.438       .  S
C770        C771   1.403       .  A
C771        C772   1.409       .  A
C771        H775   1.084       .  S
C772        N776   1.437       .  S
N774        H777   1.046       .  S
N774        H778   1.045       .  S
N776        H779   1.045       .  S
N776        H780   1.046       .  S
C785        C786   1.413       .  A
C785        C790   1.404       .  A
C786        C787   1.406       .  A
C786        N791   1.438       .  S
C787        C788   1.401       .  A
C787        H792   1.084       .  S
C788        C793   1.484       .  S
C788        C789   1.411       .  A
C789        C790   1.409       .  A
C789        N794   1.437       .  S
C790        H795   1.084       .  S
N791        H811   1.046       .  S
N791        H812   1.046       .  S
C793        C796   1.404       .  A
C793        C800   1.407       .  A
N794        H809   1.045       .  S
N794        H810   1.046       .  S
C796        C797   1.411       .  A
C796        H801   1.084       .  S
C797        C798   1.415       .  A
C797        N802   1.437       .  S
C798        C799   1.407       .  A
C799        C800   1.404       .  A
C799        H803   1.084       .  S
C800        N804   1.438       .  S
N802        H805   1.046       .  S
N802        H806   1.045       .  S
N804        H807   1.045       .  S
N804        H808   1.046       .  S
C813        C814   1.412       .  A
C813        C818   1.406       .  A
C814        C815   1.404       .  A
C814        N819   1.438       .  S
C815        C816   1.401       .  A
C815        H820   1.084       .  S
C816        C821   1.488   1_554  S
C816        C817   1.412       .  A
C817        C818   1.414       .  A
C817        N822   1.437       .  S
C818        H823   1.084       .  S
N819        H839   1.046       .  S
N819        H840   1.046       .  S
C821        C824   1.402       .  A
C821        C828   1.409       .  A
N822        H837   1.045       .  S
N822        H838   1.046       .  S
C824        C825   1.414       .  A
C824        H829   1.083       .  S
C825        C826   1.419       .  A
C825        N830   1.437       .  S
C826        C827   1.406       .  A
C827        C828   1.406       .  A
C827        H831   1.083       .  S
C828        N832   1.438   1_556  S
N830        H833   1.046       .  S
N830        H834   1.046       .  S
N832        H835   1.045   1_554  S
N832        H836   1.046       .  S
