geometry optimzed in LAMMPS
_audit_creation_date              2020-12-01 
_audit_creation_method            'lammps2cif' 
_symmetry_space_group_name_H-M    'P1' 
_symmetry_Int_Tables_number       1 
_symmetry_cell_setting            triclinic 
loop_ 
_symmetry_equiv_pos_as_xyz 
  x,y,z 
_cell_length_a                    29.07430105 
_cell_length_b                    29.060956807024446 
_cell_length_c                    39.93497526932896 
_cell_angle_alpha                 89.90193181714773 
_cell_angle_beta                  90.04130300494998 
_cell_angle_gamma                 90.15647732826054 
loop_ 
_atom_site_label 
_atom_site_type_symbol 
_atom_site_fract_x 
_atom_site_fract_y 
_atom_site_fract_z 
_atom_site_charge 
O1          O  0.80328345  0.84200880  0.62359345    -0.72900
O2          O  0.85642356  0.96275799  0.63293490    -0.72900
O3          O  0.85543651  0.89819396  0.58432888    -0.73000
O4          O  0.80397553  0.90618009  0.67249677    -0.73000
O5          O  0.86703126  0.87402728  0.69378807    -0.73000
O6          O  0.91899865  0.86768244  0.60605052    -0.73000
O7          O  0.91883806  0.93066983  0.65552379    -0.72900
O8          O  0.86719660  0.81108623  0.64439679    -0.73000
Ni9        Ni  0.82743554  0.90349730  0.62759790     1.25400
Ni10       Ni  0.89523831  0.86986977  0.65066022     1.25400
C11         C  0.82646626  0.80659855  0.63267969     0.89300
C12         C  0.89681945  0.96621437  0.64557025     0.89200
C13         C  0.89583974  0.88143742  0.58065929     0.89200
C14         C  0.82659898  0.89052106  0.69762416     0.89400
O15         O  0.16133034  0.19281506  0.62211331    -0.72900
O16         O  0.04053953  0.13960406  0.63055585    -0.72900
O17         O  0.09531850  0.19462696  0.66958125    -0.73000
O18         O  0.10701760  0.13864871  0.58347985    -0.73000
O19         O  0.13771151  0.07615751  0.60683094    -0.73000
O20         O  0.12694941  0.13283471  0.69304575    -0.73000
O21         O  0.07203431  0.07820763  0.65500402    -0.72900
O22         O  0.19212402  0.13032623  0.64518233    -0.73000
Ni23       Ni  0.09983908  0.16860594  0.62562075     1.25400
Ni24       Ni  0.13310750  0.10209977  0.65086936     1.25400
C25         C  0.19669140  0.17049770  0.63238114     0.89300
C26         C  0.03669554  0.09974294  0.64404565     0.89200
C27         C  0.11063328  0.17363042  0.69551236     0.89200
C28         C  0.12482110  0.09858954  0.58082301     0.89400
O29         O  0.16438765  0.24052373  0.89875710    -0.72900
O30         O  0.04410477  0.29400292  0.88937423    -0.72900
O31         O  0.09989904  0.24160253  0.85017048    -0.73000
O32         O  0.10894377  0.29155690  0.93843208    -0.73000
O33         O  0.14101877  0.35511199  0.91775941    -0.73000
O34         O  0.13189209  0.30480397  0.82860921    -0.73000
O35         O  0.07709944  0.35679036  0.86787021    -0.72900
O36         O  0.19582863  0.30417753  0.87775391    -0.73000
Ni37       Ni  0.10309071  0.26469512  0.89489922     1.25400
Ni38       Ni  0.13743615  0.33256281  0.87228391     1.25400
C39         C  0.19999805  0.26357217  0.88965301     0.89300
C40         C  0.04113868  0.33453704  0.87681606     0.89200
C41         C  0.11519382  0.26419520  0.82496090     0.89200
C42         C  0.12738491  0.33116231  0.94294923     0.89400
O43         O  0.80443521  0.58911471  0.90696950    -0.72900
O44         O  0.86529571  0.47193200  0.89689433    -0.72900
O45         O  0.86403709  0.53895375  0.94469830    -0.73000
O46         O  0.80504829  0.52209046  0.85955629    -0.73000
O47         O  0.86454601  0.55660140  0.83477009    -0.73000
O48         O  0.92300181  0.57425243  0.92003743    -0.73000
O49         O  0.92386373  0.50793004  0.87200815    -0.72900
O50         O  0.86393803  0.62295675  0.88190553    -0.73000
Ni51       Ni  0.83258658  0.52916654  0.90299212     1.25400
Ni52       Ni  0.89588086  0.56657467  0.87635588     1.25400
C53         C  0.82457317  0.62552865  0.89598159     0.89300
C54         C  0.90450006  0.47091085  0.88213978     0.89200
C55         C  0.90274797  0.56006958  0.94666739     0.89200
C56         C  0.82525373  0.53661561  0.83305979     0.89400
O57         O  0.41362636  0.23319111  0.62206672    -0.72900
O58         O  0.53263170  0.29011892  0.63069059    -0.72900
O59         O  0.47834266  0.23604068  0.67046031    -0.73000
O60         O  0.46754208  0.28715771  0.58228987    -0.73000
O61         O  0.43464609  0.34953182  0.60379731    -0.73000
O62         O  0.44557705  0.29878419  0.69194678    -0.73000
O63         O  0.49879689  0.35200950  0.65256115    -0.72900
O64         O  0.38083548  0.29599722  0.64319989    -0.73000
Ni65       Ni  0.47429145  0.25936819  0.62559717     1.25400
Ni66       Ni  0.43884489  0.32628975  0.64858688     1.25400
C67         C  0.37766211  0.25513428  0.63147236     0.89300
C68         C  0.53496452  0.33061749  0.64321714     0.89200
C69         C  0.46322012  0.25878160  0.69559422     0.89200
C70         C  0.44921359  0.32685136  0.57844204     0.89400
O71         O  0.76922892  0.58836470  0.62814873    -0.72900
O72         O  0.71357171  0.46859580  0.63501892    -0.72900
O73         O  0.71735927  0.53485022  0.58755232    -0.73000
O74         O  0.76606390  0.52180222  0.67592132    -0.73000
O75         O  0.70358833  0.55481039  0.69719815    -0.73000
O76         O  0.65386621  0.56612961  0.60862878    -0.73000
O77         O  0.65142410  0.50147481  0.65725057    -0.72900
O78         O  0.70554348  0.62014678  0.64857199    -0.73000
Ni79       Ni  0.74389233  0.52723812  0.63096397     1.25400
Ni80       Ni  0.67638051  0.56170864  0.65367282     1.25400
C81         C  0.74623500  0.62408074  0.63676630     0.89300
C82         C  0.67299330  0.46572670  0.64733904     0.89200
C83         C  0.67767779  0.55295599  0.58340579     0.89200
C84         C  0.74312191  0.53615413  0.70119372     0.89400
O85         O  0.76536067  0.84246929  0.90456809    -0.72900
O86         O  0.71240460  0.96249388  0.89269746    -0.72900
O87         O  0.71330671  0.89936063  0.94263201    -0.73000
O88         O  0.76563091  0.90548153  0.85466875    -0.73000
O89         O  0.70289412  0.87232693  0.83349610    -0.73000
O90         O  0.64996150  0.86732406  0.92151016    -0.73000
O91         O  0.65018448  0.92921815  0.87053678    -0.72900
O92         O  0.70171401  0.81025772  0.88401624    -0.73000
Ni93       Ni  0.74146503  0.90371368  0.89935430     1.25400
Ni94       Ni  0.67393233  0.86879764  0.87663392     1.25400
C95         C  0.74221807  0.80659318  0.89617945     0.89300
C96         C  0.67208851  0.96519755  0.87983941     0.89200
C97         C  0.67338108  0.88149470  0.94674176     0.89200
C98         C  0.74332546  0.88925594  0.82962361     0.89400
O99         O  0.41699005  0.20276509  0.90078628    -0.72900
O100        O  0.53369526  0.14199052  0.89271029    -0.72900
O101        O  0.48163201  0.19742928  0.85244223    -0.73000
O102        O  0.46884671  0.14817934  0.94100071    -0.73000
O103        O  0.43489209  0.08567859  0.92022078    -0.73000
O104        O  0.44510454  0.13639975  0.83180989    -0.73000
O105        O  0.49801620  0.08119439  0.87045483    -0.72900
O106        O  0.38223468  0.13984998  0.88115917    -0.73000
Ni107      Ni  0.47668273  0.17480496  0.89746155     1.25400
Ni108      Ni  0.43895813  0.10856589  0.87516692     1.25400
C109        C  0.38036494  0.18098016  0.89232347     0.89300
C110        C  0.53473214  0.10137807  0.88027525     0.89200
C111        C  0.46426999  0.17576361  0.82750954     0.89200
C112        C  0.44939289  0.10901914  0.94535321     0.89400
O113        O  0.31076681  0.34810482  0.40254282    -0.72900
O114        O  0.36631522  0.46759132  0.39226313    -0.72900
O115        O  0.31035829  0.41334807  0.35378011    -0.73000
O116        O  0.36508991  0.40224134  0.44049092    -0.73000
O117        O  0.42722951  0.37002644  0.41811438    -0.73000
O118        O  0.37150669  0.37981271  0.33109467    -0.73000
O119        O  0.42704820  0.43394354  0.36868725    -0.72900
O120        O  0.37306630  0.31598790  0.38034147    -0.73000
Ni121      Ni  0.33588616  0.40912471  0.39799379     1.25400
Ni122      Ni  0.40189720  0.37397329  0.37368753     1.25400
C123        C  0.33334740  0.31221378  0.39371330     0.89300
C124        C  0.40639601  0.47000355  0.37900383     0.89200
C125        C  0.33135209  0.39757621  0.32805466     0.89200
C126        C  0.40456524  0.38345841  0.44386261     0.89400
O127        O  0.66707671  0.69759201  0.40705628    -0.72900
O128        O  0.54747863  0.64465894  0.39577791    -0.72900
O129        O  0.61172988  0.64436110  0.44482492    -0.73000
O130        O  0.60372892  0.69867944  0.35772870    -0.73000
O131        O  0.63594868  0.63619940  0.33546416    -0.73000
O132        O  0.64382181  0.58181859  0.42289995    -0.73000
O133        O  0.58050653  0.58283322  0.37316089    -0.72900
O134        O  0.69958237  0.63493898  0.38534307    -0.73000
Ni135      Ni  0.60628206  0.67354373  0.40211020     1.25400
Ni136      Ni  0.64100332  0.60667014  0.37841029     1.25400
C137        C  0.70286903  0.67509067  0.39818405     0.89300
C138        C  0.54459896  0.60473454  0.38244752     0.89200
C139        C  0.62990679  0.60456717  0.44841336     0.89200
C140        C  0.61890592  0.67661436  0.33230727     0.89400
O141        O  0.92158075  0.70745093  0.12538958    -0.72900
O142        O  0.04205456  0.65293424  0.13236274    -0.72900
O143        O  0.97552174  0.65544089  0.08436563    -0.73000
O144        O  0.98764789  0.70560280  0.17300873    -0.73000
O145        O  0.95450555  0.64281481  0.19417644    -0.73000
O146        O  0.94538670  0.59153105  0.10597261    -0.73000
O147        O  0.00945134  0.59084350  0.15524904    -0.72900
O148        O  0.89020412  0.64280601  0.14535048    -0.73000
Ni149      Ni  0.98296582  0.68267464  0.12798108     1.25400
Ni150      Ni  0.94895221  0.61476982  0.15090073     1.25400
C151        C  0.88625822  0.68391638  0.13439553     0.89300
C152        C  0.04518734  0.61261329  0.14528179     0.89200
C153        C  0.95792271  0.61527280  0.08043575     0.89200
C154        C  0.97196372  0.68298949  0.19815803     0.89400
O155        O  0.26575686  0.34379718  0.12535089    -0.72900
O156        O  0.21408386  0.46515091  0.13060115    -0.72900
O157        O  0.26572792  0.41105216  0.17172377    -0.73000
O158        O  0.21479174  0.39738959  0.08391892    -0.73000
O159        O  0.15099465  0.36708267  0.10549220    -0.73000
O160        O  0.20206962  0.38130905  0.19418137    -0.73000
O161        O  0.15073677  0.43458271  0.15306114    -0.72900
O162        O  0.20216071  0.31377932  0.14741622    -0.73000
Ni163      Ni  0.24224628  0.40545422  0.12710263     1.25400
Ni164      Ni  0.17408128  0.37324210  0.15076415     1.25400
C165        C  0.24295665  0.30880666  0.13592525     0.89300
C166        C  0.17384423  0.46966146  0.14319584     0.89200
C167        C  0.24289717  0.39761037  0.19737779     0.89200
C168        C  0.17483749  0.37943929  0.07994097     0.89400
O169        O  0.30819779  0.09218423  0.12566320    -0.72900
O170        O  0.36864717  0.97444329  0.13463857    -0.72900
O171        O  0.31258486  0.02723327  0.17359381    -0.73000
O172        O  0.36321449  0.03986990  0.08592332    -0.73000
O173        O  0.42503933  0.07484125  0.10676829    -0.73000
O174        O  0.37413826  0.06247296  0.19507071    -0.73000
O175        O  0.42942564  0.01072449  0.15617380    -0.72900
O176        O  0.37049514  0.12672709  0.14642074    -0.73000
Ni177      Ni  0.33604220  0.03204527  0.12911610     1.25400
Ni178      Ni  0.40202151  0.06978246  0.15181130     1.25400
C179        C  0.32939715  0.12878607  0.13511164     0.89300
C180        C  0.40912548  0.97348528  0.14751169     0.89200
C181        C  0.33437466  0.04390974  0.19863325     0.89200
C182        C  0.40198697  0.05999305  0.08157674     0.89400
O183        O  0.66791624  0.73896964  0.12690197    -0.72900
O184        O  0.54745185  0.79428031  0.13693198    -0.72900
O185        O  0.61203372  0.79176283  0.08777121    -0.73000
O186        O  0.60292468  0.74017757  0.17571800    -0.73000
O187        O  0.63594548  0.80271560  0.19700568    -0.73000
O188        O  0.64494031  0.85477910  0.10841073    -0.73000
O189        O  0.58191214  0.85622924  0.15822071    -0.72900
O190        O  0.69962842  0.80239234  0.14806578    -0.73000
Ni191      Ni  0.60636075  0.76401164  0.13102553     1.25400
Ni192      Ni  0.64164235  0.83122408  0.15360722     1.25400
C193        C  0.70360529  0.76165350  0.13653900     0.89300
C194        C  0.54534075  0.83483483  0.14961180     0.89200
C195        C  0.63001535  0.83156911  0.08329153     0.89200
C196        C  0.61839268  0.76248006  0.20097719     0.89400
O197        O  0.91813732  0.74068642  0.40641333    -0.72900
O198        O  0.03373520  0.80209663  0.39231539    -0.72900
O199        O  0.97144526  0.79844392  0.44257618    -0.73000
O200        O  0.98037332  0.74374905  0.35579751    -0.73000
O201        O  0.94404692  0.80403696  0.33371306    -0.73000
O202        O  0.93461752  0.85848191  0.42080498    -0.73000
O203        O  0.99618876  0.86170888  0.37019466    -0.72900
O204        O  0.88242467  0.80109624  0.38419433    -0.73000
Ni205      Ni  0.97734389  0.76905482  0.40004339     1.25400
Ni206      Ni  0.93808062  0.83341512  0.37644443     1.25400
C207        C  0.88101680  0.76126339  0.39775405     0.89300
C208        C  0.03365818  0.84224294  0.37896927     0.89200
C209        C  0.95083409  0.83700465  0.44624168     0.89200
C210        C  0.96374024  0.76490814  0.33036988     0.89400
O211        O  0.27443073  0.09383232  0.40468863    -0.72900
O212        O  0.21278049  0.97795192  0.39100678    -0.72900
O213        O  0.27009813  0.03192488  0.35423106    -0.73000
O214        O  0.21826953  0.03908167  0.44160480    -0.73000
O215        O  0.15685232  0.07487587  0.42107835    -0.73000
O216        O  0.21036333  0.07007148  0.33322982    -0.73000
O217        O  0.15332200  0.01588173  0.36907989    -0.72900
O218        O  0.21257653  0.12993259  0.38484421    -0.73000
Ni219      Ni  0.24611890  0.03434107  0.39860307     1.25400
Ni220      Ni  0.18115258  0.07396989  0.37630728     1.25400
C221        C  0.25311029  0.13106836  0.39712135     0.89300
C222        C  0.17254063  0.97827841  0.37781550     0.89200
C223        C  0.24925876  0.05002330  0.32928249     0.89200
C224        C  0.17904685  0.05791727  0.44598521     0.89400
C225        C  0.08060662  0.89851493  0.34721630     0.25100
C226        C  0.07659153  0.86823133  0.37451538    -0.23000
C227        C  0.11004913  0.86901816  0.39992629     0.20000
C228        C  0.14454591  0.90271224  0.39960928     0.25100
C229        C  0.14585802  0.93564340  0.37380174    -0.22900
C230        C  0.11494674  0.93193624  0.34685653     0.20000
F231        F  0.11607637  0.96268216  0.32119603    -0.12900
F232        F  0.04943733  0.89760702  0.32184831    -0.15300
F233        F  0.17330356  0.90621133  0.42628500    -0.15300
F234        F  0.10648327  0.84052463  0.42678176    -0.12900
C235        C  0.31779012  0.03630102  0.29228081     0.25100
C236        C  0.27079566  0.04763866  0.29564438    -0.23000
C237        C  0.24489630  0.05650458  0.26651900     0.20000
C238        C  0.26543888  0.05400617  0.23493752     0.25100
C239        C  0.31238721  0.04337419  0.23182655    -0.22900
C240        C  0.33831587  0.03439952  0.26068912     0.20000
F241        F  0.38348200  0.02309670  0.25826794    -0.12900
F242        F  0.34439250  0.02787373  0.31955647    -0.15300
F243        F  0.23971785  0.06359975  0.20740268    -0.15300
F244        F  0.19963160  0.06757295  0.26843091    -0.12900
C245        C  0.49857658  0.89205860  0.18015855     0.25100
C246        C  0.50133817  0.85967099  0.15412297    -0.23000
C247        C  0.46622314  0.85865495  0.12981567     0.20000
C248        C  0.43269439  0.89359148  0.12910120     0.25100
C249        C  0.43439715  0.92975184  0.15256323    -0.22900
C250        C  0.46586127  0.92687136  0.17923048     0.20000
F251        F  0.46692307  0.95960722  0.20347096    -0.12900
F252        F  0.52998419  0.89212341  0.20537899    -0.15300
F253        F  0.40145536  0.89430842  0.10384027    -0.15300
F254        F  0.46678234  0.82662498  0.10512634    -0.12900
C255        C  0.23823898  0.22197962  0.14078273     0.25100
C256        C  0.26444791  0.26228702  0.13517294    -0.23000
C257        C  0.31205018  0.25775830  0.12941029     0.20000
C258        C  0.33270039  0.21441664  0.12877615     0.25100
C259        C  0.30645655  0.17425867  0.13379602    -0.22900
C260        C  0.25902063  0.17846778  0.13986499     0.20000
F261        F  0.23303264  0.14057517  0.14629585    -0.12900
F262        F  0.19253522  0.22442141  0.14748832    -0.15300
F263        F  0.37867059  0.21185190  0.12310083    -0.15300
F264        F  0.33924562  0.29537335  0.12517445    -0.12900
C265        C  0.82900246  0.73877565  0.15684663     0.25100
C266        C  0.84026725  0.70468930  0.13355774    -0.23000
C267        C  0.80635261  0.68818397  0.11155743     0.20000
C268        C  0.76177206  0.70657896  0.11220717     0.25100
C269        C  0.75035087  0.74118033  0.13538428    -0.22900
C270        C  0.78453271  0.75679206  0.15787508     0.20000
F271        F  0.77465073  0.78857160  0.18169713    -0.12900
F272        F  0.86066316  0.75327633  0.17956980    -0.15300
F273        F  0.73018370  0.69117665  0.08981068    -0.15300
F274        F  0.81659783  0.65443327  0.08933780    -0.12900
C275        C  0.97349275  0.75213144  0.23607721     0.25100
C276        C  0.97258313  0.70393094  0.23212097    -0.23000
C277        C  0.96975619  0.67605319  0.26097278     0.20000
C278        C  0.96742249  0.69582460  0.29286579     0.25100
C279        C  0.96734209  0.74394013  0.29668291    -0.22900
C280        C  0.97052043  0.77186114  0.26796131     0.20000
F281        F  0.97121338  0.81843564  0.27071386    -0.12900
F282        F  0.97586475  0.78044415  0.20905307    -0.15300
F283        F  0.96372767  0.66775837  0.31996271    -0.15300
F284        F  0.96930253  0.62947076  0.25843743    -0.12900
C285        C  0.11697193  0.58152668  0.11945473     0.25100
C286        C  0.08956235  0.58853734  0.14798903    -0.23000
C287        C  0.09841823  0.56280408  0.17707700     0.20000
C288        C  0.12934294  0.52624906  0.17624076     0.25100
C289        C  0.15255391  0.51542037  0.14648169    -0.22900
C290        C  0.14867743  0.54514028  0.11877512     0.20000
F291        F  0.17161531  0.53595492  0.08996546    -0.12900
F292        F  0.10923880  0.60617643  0.09110437    -0.15300
F293        F  0.13423748  0.49934725  0.20385431    -0.15300
F294        F  0.07402676  0.57058421  0.20550054    -0.12900
C295        C  0.75243020  0.74435342  0.39671317     0.25100
C296        C  0.74831453  0.69679406  0.40167047    -0.23000
C297        C  0.78785603  0.67070643  0.40878178     0.20000
C298        C  0.83121714  0.69183347  0.40941048     0.25100
C299        C  0.83553066  0.73919054  0.40233780    -0.22900
C300        C  0.79534418  0.76538958  0.39731750     0.20000
F301        F  0.79726905  0.81157512  0.39225664    -0.12900
F302        F  0.71500497  0.77041355  0.38945761    -0.15300
F303        F  0.86880066  0.66571355  0.41606342    -0.15300
F304        F  0.78454678  0.62486575  0.41505817    -0.12900
C305        C  0.59977402  0.67504100  0.27120162     0.25100
C306        C  0.61750027  0.69863139  0.29899397    -0.23000
C307        C  0.63436467  0.74355316  0.29479245     0.20000
C308        C  0.63455534  0.76434308  0.26314484     0.25100
C309        C  0.61675809  0.74098071  0.23497715    -0.22900
C310        C  0.59869409  0.69615045  0.23962571     0.20000
F311        F  0.58000279  0.67238451  0.21370237    -0.12900
F312        F  0.58258482  0.63180436  0.27477403    -0.15300
F313        F  0.65283462  0.80718412  0.26021286    -0.15300
F314        F  0.65228124  0.76680133  0.32125294    -0.12900
C315        C  0.34178415  0.22621736  0.39553562     0.25100
C316        C  0.31367366  0.26559623  0.39854073    -0.23000
C317        C  0.26649451  0.25964293  0.40499634     0.20000
C318        C  0.24756279  0.21554837  0.40678490     0.25100
C319        C  0.27507805  0.17646875  0.40137811    -0.22900
C320        C  0.32254957  0.18211802  0.39658019     0.20000
F321        F  0.34999213  0.14521201  0.39089409    -0.12900
F322        F  0.38788944  0.23016731  0.39084064    -0.15300
F323        F  0.20186177  0.21112928  0.41309757    -0.15300
F324        F  0.23808167  0.29637509  0.40817333    -0.12900
C325        C  0.26140107  0.40995293  0.29131061     0.25100
C326        C  0.30860642  0.39919902  0.29452809    -0.23000
C327        C  0.33359111  0.38870655  0.26527605     0.20000
C328        C  0.31228138  0.38948732  0.23386953     0.25100
C329        C  0.26513943  0.39935134  0.23079827    -0.22900
C330        C  0.23983875  0.40943821  0.25984417     0.20000
F331        F  0.19435013  0.41951483  0.25774944    -0.12900
F332        F  0.23561495  0.42017984  0.31862972    -0.15300
F333        F  0.33766947  0.37889037  0.20642393    -0.15300
F334        F  0.37877352  0.37725391  0.26685699    -0.12900
C335        C  0.43469305  0.54363498  0.40416981     0.25100
C336        C  0.43118967  0.51404111  0.37640650    -0.23000
C337        C  0.45898323  0.52200684  0.34822478     0.20000
C338        C  0.49276618  0.55594481  0.34896450     0.25100
C339        C  0.49998347  0.58181699  0.37810036    -0.22900
C340        C  0.46909366  0.57756134  0.40500497     0.20000
F341        F  0.47540145  0.60247147  0.43339399    -0.12900
F342        F  0.40866990  0.53623648  0.43189142    -0.15300
F343        F  0.52102398  0.56109410  0.32213151    -0.15300
F344        F  0.45592492  0.49437589  0.32091867    -0.12900
C345        C  0.39644102  0.04660070  0.01948010     0.25100
C346        C  0.41891606  0.06764815  0.04680640    -0.23000
C347        C  0.45520724  0.09860402  0.04015748     0.20000
C348        C  0.46666158  0.11030174  0.00714916     0.25100
C349        C  0.44194322  0.09164113  0.97997086    -0.22900
C350        C  0.40765323  0.05857096  0.98656254     0.20000
F351        F  0.38310793  0.03927374  0.96125633    -0.12900
F352        F  0.36245720  0.01517478  0.02442161    -0.15300
F353        F  0.50152309  0.14065821  0.00190879    -0.15300
F354        F  0.47856131  0.11920503  0.06551087    -0.12900
C355        C  0.67182307  0.90130488  0.00819064     0.25100
C356        C  0.65562617  0.87444556  0.98127920    -0.23000
C357        C  0.62576748  0.83750292  0.98819027     0.20000
C358        C  0.61546065  0.82528896  0.02122785     0.25100
C359        C  0.63490069  0.84958244  0.04839959    -0.22900
C360        C  0.66145619  0.88914617  0.04137889     0.20000
F361        F  0.67890486  0.91527866  0.06653262    -0.12900
F362        F  0.69852245  0.93891548  0.00245532    -0.15300
F363        F  0.58747763  0.78848018  0.02639089    -0.15300
F364        F  0.60870611  0.81108433  0.96304199    -0.12900
C365        C  0.62457923  0.02061954  0.84776817     0.25100
C366        C  0.64810583  0.00948027  0.87740733    -0.23000
C367        C  0.63936086  0.03471872  0.90667820     0.20000
C368        C  0.60422223  0.06757701  0.90709706     0.25100
C369        C  0.57819257  0.07595519  0.87807560    -0.22900
C370        C  0.58969623  0.05353393  0.84813319     0.20000
F371        F  0.56513685  0.06146032  0.81976849    -0.12900
F372        F  0.63335727  0.99736230  0.81901243    -0.15300
F373        F  0.59216567  0.08717688  0.93664997    -0.15300
F374        F  0.66108039  0.02380367  0.93572885    -0.12900
C375        C  0.68062508  0.53827181  0.52143257     0.25100
C376        C  0.66028289  0.56068037  0.54894698    -0.23000
C377        C  0.62572612  0.59348240  0.54289006     0.20000
C378        C  0.61417468  0.60598269  0.51018213     0.25100
C379        C  0.63682119  0.58595888  0.48266294    -0.22900
C380        C  0.66908815  0.55080754  0.48867096     0.20000
F381        F  0.69147093  0.53009185  0.46297364    -0.12900
F382        F  0.71269399  0.50496513  0.52609119    -0.15300
F383        F  0.58167285  0.63887300  0.50563162    -0.15300
F384        F  0.60463408  0.61551285  0.56857789    -0.12900
C385        C  0.46690035  0.32732010  0.51667457     0.25100
C386        C  0.44329345  0.34618269  0.54424879    -0.23000
C387        C  0.41193701  0.38216932  0.53848090     0.20000
C388        C  0.40158380  0.39627482  0.50591136     0.25100
C389        C  0.42240104  0.37484731  0.47816117    -0.22900
C390        C  0.45661958  0.34157497  0.48400752     0.20000
F391        F  0.47860427  0.32089177  0.45811373    -0.12900
F392        F  0.49926216  0.29428184  0.52114611    -0.15300
F393        F  0.36988011  0.43000707  0.50164614    -0.15300
F394        F  0.38928062  0.40247912  0.56422893    -0.12900
C395        C  0.44364034  0.17474935  0.76617735     0.25100
C396        C  0.46530095  0.19687559  0.79345244    -0.23000
C397        C  0.48624992  0.24020983  0.78790634     0.20000
C398        C  0.48553153  0.26052588  0.75605881     0.25100
C399        C  0.46461446  0.23775909  0.72910021    -0.22900
C400        C  0.44361371  0.19492365  0.73438834     0.20000
F401        F  0.42138399  0.17338306  0.70889949    -0.12900
F402        F  0.42151459  0.13391554  0.77016598    -0.15300
F403        F  0.50589167  0.30216599  0.75141939    -0.15300
F404        F  0.50722848  0.26329842  0.81322065    -0.12900
C405        C  0.58741003  0.37906569  0.67663380     0.25100
C406        C  0.57927642  0.35444543  0.64701923    -0.23000
C407        C  0.60929302  0.36002190  0.61968313     0.20000
C408        C  0.64424117  0.39336563  0.62098240     0.25100
C409        C  0.64875077  0.42147349  0.64942600    -0.22900
C410        C  0.62175468  0.41242703  0.67779958     0.20000
F411        F  0.62620246  0.43857168  0.70578794    -0.12900
F412        F  0.55963055  0.37324945  0.70364754    -0.15300
F413        F  0.66992390  0.40177218  0.59323202    -0.15300
F414        F  0.60159634  0.33713508  0.59059136    -0.12900
C415        C  0.83042156  0.71149394  0.89566557     0.25100
C416        C  0.80297965  0.67161647  0.89903495    -0.23000
C417        C  0.75524363  0.67679742  0.90365162     0.20000
C418        C  0.73537940  0.72074789  0.90339860     0.25100
C419        C  0.76299403  0.76034860  0.89934250    -0.22900
C420        C  0.81074511  0.75516609  0.89615312     0.20000
F421        F  0.83848682  0.79236320  0.89180981    -0.12900
F422        F  0.87664075  0.70851259  0.89137320    -0.15300
F423        F  0.68907730  0.72449770  0.90692209    -0.15300
F424        F  0.72749412  0.63944585  0.90718042    -0.12900
C425        C  0.95557061  0.60507625  0.98510328     0.25100
C426        C  0.92289661  0.56968116  0.98036791    -0.23000
C427        C  0.90686316  0.54571388  0.00875895     0.20000
C428        C  0.91993948  0.55914995  0.04103105     0.25100
C429        C  0.94978082  0.59686573  0.04598901    -0.22900
C430        C  0.96894723  0.61839738  0.01750280     0.20000
F431        F  0.00008678  0.65299892  0.02086257    -0.12900
F432        F  0.97321985  0.62832372  0.95851272    -0.15300
F433        F  0.90158299  0.53610564  0.06744917    -0.15300
F434        F  0.87759232  0.50951934  0.00547250    -0.12900
C435        C  0.83059075  0.52563125  0.77124544     0.25100
C436        C  0.80315749  0.53112424  0.79989774    -0.23000
C437        C  0.75511062  0.53403301  0.79613217     0.20000
C438        C  0.73530168  0.53475791  0.76410651     0.25100
C439        C  0.76315947  0.53187311  0.73528104    -0.22900
C440        C  0.81091839  0.52590969  0.73935660     0.20000
F441        F  0.83914528  0.52192938  0.71245415    -0.12900
F442        F  0.87678587  0.52003517  0.77407822    -0.15300
F443        F  0.68889815  0.53854687  0.76139538    -0.15300
F444        F  0.72740568  0.53808828  0.82332400    -0.12900
C445        C  0.29575519  0.17668344  0.90165185     0.25100
C446        C  0.33504440  0.20326652  0.89460464    -0.23000
C447        C  0.33002171  0.25018630  0.88718718     0.20000
C448        C  0.28627649  0.26993566  0.88587036     0.25100
C449        C  0.24659388  0.24315473  0.89241690    -0.22900
C450        C  0.25205232  0.19635046  0.90065709     0.20000
F451        F  0.21511234  0.16897526  0.90686971    -0.12900
F452        F  0.29961120  0.13133078  0.90939105    -0.15300
F453        F  0.28302428  0.31511465  0.87747021    -0.15300
F454        F  0.36725512  0.27648853  0.87951287    -0.12900
C455        C  0.16711880  0.38282272  0.98472420     0.25100
C456        C  0.13463484  0.34798183  0.97792889    -0.23000
C457        C  0.11185369  0.32707720  0.00523677     0.20000
C458        C  0.12305695  0.33879417  0.03836972     0.25100
C459        C  0.15759781  0.37166728  0.04511044    -0.22900
C460        C  0.17823805  0.39454948  0.01778681     0.20000
F461        F  0.21016810  0.42801482  0.02290436    -0.12900
F462        F  0.18996235  0.40418308  0.95945401    -0.15300
F463        F  0.10145395  0.31637999  0.06374331    -0.15300
F464        F  0.07920314  0.29431808  0.00005355    -0.12900
C465        C  0.98987752  0.38807024  0.84630660     0.25100
C466        C  0.99654883  0.35813246  0.87351364    -0.23000
C467        C  0.96506797  0.35875274  0.90022562     0.20000
C468        C  0.93163712  0.39344762  0.90195133     0.25100
C469        C  0.92928768  0.42725870  0.87676490    -0.22900
C470        C  0.95660221  0.42239392  0.84792624     0.20000
F471        F  0.95309282  0.45276673  0.82214990    -0.12900
F472        F  0.01785956  0.38609603  0.81910482    -0.15300
F473        F  0.90501378  0.39673010  0.92973555    -0.15300
F474        F  0.96969087  0.32896447  0.92621521    -0.12900
C475        C  0.24849831  0.23925625  0.62436342     0.25100
C476        C  0.24331963  0.19164817  0.63013251    -0.23000
C477        C  0.28324730  0.16485491  0.63493806     0.20000
C478        C  0.32692475  0.18529611  0.63458203     0.25100
C479        C  0.33180677  0.23294005  0.62950566    -0.22900
C480        C  0.29217052  0.25959873  0.62411694     0.20000
F481        F  0.29563463  0.30556118  0.61843510    -0.12900
F482        F  0.21126043  0.26665637  0.61981587    -0.15300
F483        F  0.36434023  0.15863634  0.64057565    -0.15300
F484        F  0.28027167  0.11877722  0.64024418    -0.12900
C485        C  0.10612363  0.09514404  0.51982366     0.25100
C486        C  0.13286757  0.07982218  0.54697484    -0.23000
C487        C  0.17086799  0.05134540  0.54072806     0.20000
C488        C  0.18446766  0.04216760  0.50786466     0.25100
C489        C  0.16031255  0.06136561  0.48050285    -0.22900
C490        C  0.11979060  0.08630324  0.48693631     0.20000
F491        F  0.09429578  0.10408091  0.46155759    -0.12900
F492        F  0.06733773  0.12002401  0.52510318    -0.15300
F493        F  0.22262479  0.01613748  0.50309994    -0.15300
F494        F  0.19692946  0.03493599  0.56631545    -0.12900
C495        C  0.12049820  0.19403946  0.78918758     0.25100
C496        C  0.11435193  0.24192394  0.79159530    -0.23000
C497        C  0.10736608  0.26748725  0.76211408     0.20000
C498        C  0.10526326  0.24534246  0.73095106     0.25100
C499        C  0.11084143  0.19717210  0.72858948    -0.22900
C500        C  0.11898584  0.17197778  0.75816522     0.20000
F501        F  0.12562577  0.12576331  0.75729019    -0.12900
F502        F  0.12935051  0.16845939  0.81693482    -0.15300
F503        F  0.09868706  0.27135459  0.70308303    -0.15300
F504        F  0.10177213  0.31381507  0.76345186    -0.12900
C505        C  0.81474437  0.67647038  0.63372696     0.25100
C506        C  0.76676255  0.67058103  0.63336258    -0.23000
C507        C  0.73850647  0.70976792  0.63062918     0.20000
C508        C  0.75783218  0.75387828  0.62923510     0.25100
C509        C  0.80587009  0.75986554  0.63073255    -0.22900
C510        C  0.83407251  0.72051427  0.63247159     0.20000
F511        F  0.88060056  0.72445447  0.63332763    -0.12900
F512        F  0.84316324  0.63968044  0.63663520    -0.15300
F513        F  0.72925583  0.79070705  0.62764517    -0.15300
F514        F  0.69199611  0.70555804  0.62937864    -0.12900
C515        C  0.96415454  0.83333232  0.50823792     0.25100
C516        C  0.94335137  0.85510640  0.48057411    -0.23000
C517        C  0.91167057  0.89082506  0.48656064     0.20000
C518        C  0.89769331  0.90104578  0.51925431     0.25100
C519        C  0.91536478  0.87605768  0.54661602    -0.22900
C520        C  0.95021963  0.84353677  0.54079281     0.20000
F521        F  0.96915791  0.81936138  0.56643039    -0.12900
F522        F  0.99691175  0.80065797  0.50393915    -0.15300
F523        F  0.86607906  0.93472957  0.52397947    -0.15300
F524        F  0.89249611  0.91460226  0.46081850    -0.12900
C525        C  0.75732287  0.88997239  0.73503619     0.25100
C526        C  0.80547696  0.89064599  0.73142444    -0.23000
C527        C  0.83308009  0.89001249  0.76042409     0.20000
C528        C  0.81294634  0.88968152  0.79226092     0.25100
C529        C  0.76472199  0.88971989  0.79586352    -0.22900
C530        C  0.73720315  0.88948077  0.76684339     0.20000
F531        F  0.69062129  0.88930208  0.76913033    -0.12900
F532        F  0.72948656  0.88850724  0.70773978    -0.15300
F533        F  0.84081792  0.88814994  0.81954312    -0.15300
F534        F  0.87968802  0.89008635  0.75808476    -0.12900
C535        C  0.94445273  0.02182974  0.67713021     0.25100
C536        C  0.92052709  0.01090120  0.64767165    -0.23000
C537        C  0.92848852  0.03700815  0.61855279     0.20000
C538        C  0.96403284  0.06983311  0.61796495     0.25100
C539        C  0.99155421  0.07671491  0.64656662    -0.22900
C540        C  0.97977536  0.05439252  0.67656412     0.20000
F541        F  0.00462540  0.06192736  0.70483109    -0.12900
F542        F  0.93584164  0.99834828  0.70588912    -0.15300
F543        F  0.97467236  0.09099721  0.58862314    -0.15300
F544        F  0.90551022  0.02713436  0.58980868    -0.12900
loop_ 
_geom_bond_atom_site_label_1 
_geom_bond_atom_site_label_2 
_geom_bond_distance 
_geom_bond_site_symmetry_2 
_ccdc_geom_bond_type 
O1           Ni9   1.925       .  S
O1           C11   1.283       .  A
O2           Ni9   1.927       .  S
O2           C12   1.282       .  A
O3           Ni9   1.917       .  S
O3           C13   1.281       .  A
O4           Ni9   1.921       .  S
O4           C14   1.283       .  A
O5          Ni10   1.912       .  S
O5           C14   1.280       .  A
O6          Ni10   1.912       .  S
O6           C13   1.281       .  A
O7          Ni10   1.904       .  S
O7           C12   1.279       .  A
O8          Ni10   1.908       .  S
O8           C11   1.279       .  A
Ni9         Ni10   2.386       .  S
C11         C509   1.485       .  S
C12         C536   1.471   1_565  S
C13         C519   1.482       .  S
C14         C526   1.483       .  S
O15         Ni23   1.925       .  S
O15          C25   1.284       .  A
O16         Ni23   1.927       .  S
O16          C26   1.281       .  A
O17         Ni23   1.917       .  S
O17          C27   1.281       .  A
O18         Ni23   1.908       .  S
O18          C28   1.280       .  A
O19         Ni24   1.920       .  S
O19          C28   1.282       .  A
O20         Ni24   1.917       .  S
O20          C27   1.282       .  A
O21         Ni24   1.912       .  S
O21          C26   1.281       .  A
O22         Ni24   1.913       .  S
O22          C25   1.280       .  A
Ni23        Ni24   2.385       .  S
C25         C476   1.490       .  S
C26         C539   1.475   1_455  S
C27         C499   1.489       .  S
C28         C486   1.478       .  S
O29         Ni37   1.923       .  S
O29          C39   1.284       .  A
O30         Ni37   1.929       .  S
O30          C40   1.283       .  A
O31         Ni37   1.911       .  S
O31          C41   1.280       .  A
O32         Ni37   1.914       .  S
O32          C42   1.281       .  A
O33         Ni38   1.934       .  S
O33          C42   1.285       .  A
O34         Ni38   1.929       .  S
O34          C41   1.283       .  A
O35         Ni38   1.900       .  S
O35          C40   1.279       .  A
O36         Ni38   1.902       .  S
O36          C39   1.277       .  A
Ni37        Ni38   2.385       .  S
C39         C449   1.484       .  S
C40         C466   1.474   1_455  S
C41         C496   1.482       .  S
C42         C456   1.495       .  S
O43         Ni51   1.934       .  S
O43          C53   1.285       .  A
O44         Ni51   1.934       .  S
O44          C54   1.284       .  A
O45         Ni51   1.921       .  S
O45          C55   1.283       .  A
O46         Ni51   1.921       .  S
O46          C56   1.281       .  A
O47         Ni52   1.916       .  S
O47          C56   1.282       .  A
O48         Ni52   1.927       .  S
O48          C55   1.283       .  A
O49         Ni52   1.899       .  S
O49          C54   1.278       .  A
O50         Ni52   1.899       .  S
O50          C53   1.278       .  A
Ni51        Ni52   2.385       .  S
C53         C416   1.486       .  S
C54         C469   1.477       .  S
C55         C426   1.494       .  S
C56         C436   1.480       .  S
O57         Ni65   1.924       .  S
O57          C67   1.283       .  A
O58         Ni65   1.926       .  S
O58          C68   1.281       .  A
O59         Ni65   1.918       .  S
O59          C69   1.281       .  A
O60         Ni65   1.918       .  S
O60          C70   1.281       .  A
O61         Ni66   1.915       .  S
O61          C70   1.282       .  A
O62         Ni66   1.916       .  S
O62          C69   1.280       .  A
O63         Ni66   1.901       .  S
O63          C68   1.279       .  A
O64         Ni66   1.913       .  S
O64          C67   1.280       .  A
Ni65        Ni66   2.389       .  S
C67         C479   1.482       .  S
C68         C406   1.469       .  S
C69         C399   1.471       .  S
C70         C386   1.486       .  S
O71         Ni79   1.924       .  S
O71          C81   1.284       .  A
O72         Ni79   1.923       .  S
O72          C82   1.281       .  A
O73         Ni79   1.910       .  S
O73          C83   1.280       .  A
O74         Ni79   1.914       .  S
O74          C84   1.281       .  A
O75         Ni80   1.920       .  S
O75          C84   1.282       .  A
O76         Ni80   1.918       .  S
O76          C83   1.282       .  A
O77         Ni80   1.898       .  S
O77          C82   1.278       .  A
O78         Ni80   1.907       .  S
O78          C81   1.279       .  A
Ni79        Ni80   2.386       .  S
C81         C506   1.482       .  S
C82         C409   1.467       .  S
C83         C376   1.483       .  S
C84         C439   1.485       .  S
O85         Ni93   1.923       .  S
O85          C95   1.284       .  A
O86         Ni93   1.926       .  S
O86          C96   1.282       .  A
O87         Ni93   1.917       .  S
O87          C97   1.281       .  A
O88         Ni93   1.919       .  S
O88          C98   1.282       .  A
O89         Ni94   1.920       .  S
O89          C98   1.282       .  A
O90         Ni94   1.924       .  S
O90          C97   1.284       .  A
O91         Ni94   1.904       .  S
O91          C96   1.278       .  A
O92         Ni94   1.908       .  S
O92          C95   1.278       .  A
Ni93        Ni94   2.387       .  S
C95         C419   1.480       .  S
C96         C366   1.468   1_565  S
C97         C356   1.487       .  S
C98         C529   1.485       .  S
O99        Ni107   1.923       .  S
O99         C109   1.283       .  A
O100       Ni107   1.924       .  S
O100        C110   1.282       .  A
O101       Ni107   1.919       .  S
O101        C111   1.282       .  A
O102       Ni107   1.915       .  S
O102        C112   1.281       .  A
O103       Ni108   1.921       .  S
O103        C112   1.283       .  A
O104       Ni108   1.918       .  S
O104        C111   1.282       .  A
O105       Ni108   1.904       .  S
O105        C110   1.278       .  A
O106       Ni108   1.901       .  S
O106        C109   1.278       .  A
Ni107      Ni108   2.386       .  S
C109        C446   1.473       .  S
C110        C369   1.468       .  S
C111        C396   1.491       .  S
C112        C349   1.487       .  S
O113       Ni121   1.924       .  S
O113        C123   1.284       .  A
O114       Ni121   1.927       .  S
O114        C124   1.282       .  A
O115       Ni121   1.919       .  S
O115        C125   1.281       .  A
O116       Ni121   1.908       .  S
O116        C126   1.279       .  A
O117       Ni122   1.924       .  S
O117        C126   1.284       .  A
O118       Ni122   1.924       .  S
O118        C125   1.283       .  A
O119       Ni122   1.898       .  S
O119        C124   1.278       .  A
O120       Ni122   1.898       .  S
O120        C123   1.277       .  A
Ni121      Ni122   2.385       .  S
C123        C316   1.481       .  S
C124        C336   1.471       .  S
C125        C326   1.494       .  S
C126        C389   1.485       .  S
O127       Ni135   1.909       .  S
O127        C137   1.281       .  A
O128       Ni135   1.919       .  S
O128        C138   1.280       .  A
O129       Ni135   1.910       .  S
O129        C139   1.281       .  A
O130       Ni135   1.917       .  S
O130        C140   1.281       .  A
O131       Ni136   1.922       .  S
O131        C140   1.282       .  A
O132       Ni136   1.919       .  S
O132        C139   1.282       .  A
O133       Ni136   1.900       .  S
O133        C138   1.280       .  A
O134       Ni136   1.909       .  S
O134        C137   1.279       .  A
Ni135      Ni136   2.390       .  S
C137        C296   1.469       .  S
C138        C339   1.467       .  S
C139        C379   1.484       .  S
C140        C306   1.476       .  S
O141       Ni149   1.929       .  S
O141        C151   1.284       .  A
O142       Ni149   1.933   1_455  S
O142        C152   1.283       .  A
O143       Ni149   1.926       .  S
O143        C153   1.283       .  A
O144       Ni149   1.923       .  S
O144        C154   1.283       .  A
O145       Ni150   1.919       .  S
O145        C154   1.282       .  A
O146       Ni150   1.921       .  S
O146        C153   1.283       .  A
O147       Ni150   1.901   1_455  S
O147        C152   1.278       .  A
O148       Ni150   1.907       .  S
O148        C151   1.277       .  A
Ni149      Ni150   2.386       .  S
C151        C266   1.469       .  S
C152        C286   1.473       .  S
C153        C429   1.495       .  S
C154        C276   1.488       .  S
O155       Ni163   1.921       .  S
O155        C165   1.283       .  A
O156       Ni163   1.926       .  S
O156        C166   1.281       .  A
O157       Ni163   1.915       .  S
O157        C167   1.281       .  A
O158       Ni163   1.914       .  S
O158        C168   1.282       .  A
O159       Ni164   1.936       .  S
O159        C168   1.284       .  A
O160       Ni164   1.929       .  S
O160        C167   1.283       .  A
O161       Ni164   1.912       .  S
O161        C166   1.281       .  A
O162       Ni164   1.918       .  S
O162        C165   1.281       .  A
Ni163      Ni164   2.385       .  S
C165        C256   1.491       .  S
C166        C289   1.474       .  S
C167        C329   1.484       .  S
C168        C459   1.495       .  S
O169       Ni177   1.933       .  S
O169        C179   1.285       .  A
O170       Ni177   1.938   1_565  S
O170        C180   1.284       .  A
O171       Ni177   1.908       .  S
O171        C181   1.279       .  A
O172       Ni177   1.911       .  S
O172        C182   1.280       .  A
O173       Ni178   1.925       .  S
O173        C182   1.283       .  A
O174       Ni178   1.920       .  S
O174        C181   1.282       .  A
O175       Ni178   1.902       .  S
O175        C180   1.279   1_545  A
O176       Ni178   1.906       .  S
O176        C179   1.279       .  A
Ni177      Ni178   2.386       .  S
C179        C259   1.483       .  S
C180        C249   1.483       .  S
C181        C239   1.472       .  S
C182        C346   1.490       .  S
O183       Ni191   1.941       .  S
O183        C193   1.287       .  A
O184       Ni191   1.942       .  S
O184        C194   1.285       .  A
O185       Ni191   1.912       .  S
O185        C195   1.280       .  A
O186       Ni191   1.916       .  S
O186        C196   1.281       .  A
O187       Ni192   1.927       .  S
O187        C196   1.284       .  A
O188       Ni192   1.932       .  S
O188        C195   1.284       .  A
O189       Ni192   1.894       .  S
O189        C194   1.277       .  A
O190       Ni192   1.898       .  S
O190        C193   1.277       .  A
Ni191      Ni192   2.382       .  S
C193        C269   1.486       .  S
C194        C246   1.482       .  S
C195        C359   1.494       .  S
C196        C309   1.494       .  S
O197       Ni205   1.923       .  S
O197        C207   1.282       .  A
O198       Ni205   1.923   1_455  S
O198        C208   1.282       .  A
O199       Ni205   1.911       .  S
O199        C209   1.281       .  A
O200       Ni205   1.917       .  S
O200        C210   1.281       .  A
O201       Ni206   1.918       .  S
O201        C210   1.282       .  A
O202       Ni206   1.919       .  S
O202        C209   1.282       .  A
O203       Ni206   1.893       .  S
O203        C208   1.277   1_655  A
O204       Ni206   1.894       .  S
O204        C207   1.278       .  A
Ni205      Ni206   2.386       .  S
C207        C299   1.480       .  S
C208        C226   1.468       .  S
C209        C516   1.486       .  S
C210        C279   1.482       .  S
O211       Ni219   1.928       .  S
O211        C221   1.284       .  A
O212       Ni219   1.926   1_565  S
O212        C222   1.283       .  A
O213       Ni219   1.906       .  S
O213        C223   1.279       .  A
O214       Ni219   1.904       .  S
O214        C224   1.279       .  A
O215       Ni220   1.923       .  S
O215        C224   1.284       .  A
O216       Ni220   1.923       .  S
O216        C223   1.283       .  A
O217       Ni220   1.893       .  S
O217        C222   1.277   1_545  A
O218       Ni220   1.895       .  S
O218        C221   1.276       .  A
Ni219      Ni220   2.386       .  S
C221        C319   1.474       .  S
C222        C229   1.469       .  S
C223        C236   1.484       .  S
C224        C489   1.486       .  S
C225        C226   1.405       .  A
C225        C230   1.391       .  A
C225        F232   1.359       .  S
C226        C227   1.405       .  A
C227        C228   1.400       .  A
C227        F234   1.358       .  S
C228        C229   1.406       .  A
C228        F233   1.358       .  S
C229        C230   1.406       .  A
C230        F231   1.359       .  S
C235        C236   1.413       .  A
C235        C240   1.397       .  A
C235        F242   1.358       .  S
C236        C237   1.409       .  A
C237        C238   1.398       .  A
C237        F244   1.358       .  S
C238        C239   1.406       .  A
C238        F243   1.358       .  S
C239        C240   1.401       .  A
C240        F241   1.358       .  S
C245        C246   1.406       .  A
C245        C250   1.391       .  A
C245        F252   1.359       .  S
C246        C247   1.409       .  A
C247        C248   1.410       .  A
C247        F254   1.357       .  S
C248        C249   1.410       .  A
C248        F253   1.357       .  S
C249        C250   1.406       .  A
C250        F251   1.359       .  S
C255        C256   1.413       .  A
C255        C260   1.403       .  A
C255        F262   1.358       .  S
C256        C257   1.410       .  A
C257        C258   1.397       .  A
C257        F264   1.358       .  S
C258        C259   1.407       .  A
C258        F263   1.358       .  S
C259        C260   1.406       .  A
C260        F261   1.358       .  S
C265        C266   1.400       .  A
C265        C270   1.397       .  A
C265        F272   1.359       .  S
C266        C267   1.404       .  A
C267        C268   1.404       .  A
C267        F274   1.358       .  S
C268        C269   1.408       .  A
C268        F273   1.357       .  S
C269        C270   1.413       .  A
C270        F271   1.358       .  S
C275        C276   1.410       .  A
C275        C280   1.400       .  A
C275        F282   1.358       .  S
C276        C277   1.410       .  A
C277        C278   1.400       .  A
C277        F284   1.358       .  S
C278        C279   1.407       .  A
C278        F283   1.358       .  S
C279        C280   1.407       .  A
C280        F281   1.358       .  S
C285        C286   1.406       .  A
C285        C290   1.405       .  A
C285        F292   1.358       .  S
C286        C287   1.404       .  A
C287        C288   1.394       .  A
C287        F294   1.358       .  S
C288        C289   1.404       .  A
C288        F293   1.358       .  S
C289        C290   1.407       .  A
C290        F291   1.358       .  S
C295        C296   1.401       .  A
C295        C300   1.388       .  A
C295        F302   1.358       .  S
C296        C297   1.407       .  A
C297        C298   1.401       .  A
C297        F304   1.358       .  S
C298        C299   1.410       .  A
C298        F303   1.358       .  S
C299        C300   1.410       .  A
C300        F301   1.358       .  S
C305        C306   1.403       .  A
C305        C310   1.402       .  A
C305        F312   1.358       .  S
C306        C307   1.403       .  A
C307        C308   1.400       .  A
C307        F314   1.358       .  S
C308        C309   1.412       .  A
C308        F313   1.357       .  S
C309        C310   1.415       .  A
C310        F311   1.358       .  S
C315        C316   1.413       .  A
C315        C320   1.397       .  A
C315        F322   1.358       .  S
C316        C317   1.406       .  A
C317        C318   1.395       .  A
C317        F324   1.358       .  S
C318        C319   1.408       .  A
C318        F323   1.358       .  S
C319        C320   1.403       .  A
C320        F321   1.358       .  S
C325        C326   1.414       .  A
C325        C330   1.404       .  A
C325        F332   1.358       .  S
C326        C327   1.410       .  A
C327        C328   1.399       .  A
C327        F334   1.357       .  S
C328        C329   1.406       .  A
C328        F333   1.358       .  S
C329        C330   1.406       .  A
C330        F331   1.358       .  S
C335        C336   1.408       .  A
C335        C340   1.403       .  A
C335        F342   1.358       .  S
C336        C337   1.404       .  A
C337        C338   1.390       .  A
C337        F344   1.358       .  S
C338        C339   1.402       .  A
C338        F343   1.359       .  S
C339        C340   1.406       .  A
C340        F341   1.358       .  S
C345        C346   1.411       .  A
C345        C350   1.398   1_554  A
C345        F352   1.358       .  S
C346        C347   1.410       .  A
C347        C348   1.401       .  A
C347        F354   1.358       .  S
C348        C349   1.410   1_554  A
C348        F353   1.358       .  S
C349        C350   1.408       .  A
C350        F351   1.358       .  S
C355        C356   1.409   1_554  A
C355        C360   1.404       .  A
C355        F362   1.358       .  S
C356        C357   1.406       .  A
C357        C358   1.398   1_556  A
C357        F364   1.358       .  S
C358        C359   1.412       .  A
C358        F363   1.358       .  S
C359        C360   1.411       .  A
C360        F361   1.358       .  S
C365        C366   1.404       .  A
C365        C370   1.396       .  A
C365        F372   1.358   1_545  S
C366        C367   1.405       .  A
C367        C368   1.400       .  A
C367        F374   1.358       .  S
C368        C369   1.405       .  A
C368        F373   1.358       .  S
C369        C370   1.404       .  A
C370        F371   1.358       .  S
C375        C376   1.410       .  A
C375        C380   1.398       .  A
C375        F382   1.358       .  S
C376        C377   1.407       .  A
C377        C378   1.396       .  A
C377        F384   1.358       .  S
C378        C379   1.409       .  A
C378        F383   1.358       .  S
C379        C380   1.409       .  A
C380        F381   1.358       .  S
C385        C386   1.410       .  A
C385        C390   1.400       .  A
C385        F392   1.358       .  S
C386        C387   1.408       .  A
C387        C388   1.396       .  A
C387        F394   1.358       .  S
C388        C389   1.410       .  A
C388        F393   1.358       .  S
C389        C390   1.408       .  A
C390        F391   1.358       .  S
C395        C396   1.413       .  A
C395        C400   1.397       .  A
C395        F402   1.357       .  S
C396        C397   1.415       .  A
C397        C398   1.401       .  A
C397        F404   1.358       .  S
C398        C399   1.402       .  A
C398        F403   1.358       .  S
C399        C400   1.401       .  A
C400        F401   1.358       .  S
C405        C406   1.403       .  A
C405        C410   1.391       .  A
C405        F412   1.358       .  S
C406        C407   1.407       .  A
C407        C408   1.403       .  A
C407        F414   1.358       .  S
C408        C409   1.406       .  A
C408        F413   1.358       .  S
C409        C410   1.403       .  A
C410        F411   1.358       .  S
C415        C416   1.411       .  A
C415        C420   1.394       .  A
C415        F422   1.358       .  S
C416        C417   1.409       .  A
C417        C418   1.403       .  A
C417        F424   1.358       .  S
C418        C419   1.411       .  A
C418        F423   1.358       .  S
C419        C420   1.403       .  A
C420        F421   1.358       .  S
C425        C426   1.411       .  A
C425        C430   1.405   1_556  A
C425        F432   1.358       .  S
C426        C427   1.409   1_556  A
C427        C428   1.399       .  A
C427        F434   1.358       .  S
C428        C429   1.410       .  A
C428        F433   1.357       .  S
C429        C430   1.412       .  A
C430        F431   1.358   1_655  S
C435        C436   1.405       .  A
C435        C440   1.396       .  A
C435        F442   1.358       .  S
C436        C437   1.408       .  A
C437        C438   1.402       .  A
C437        F444   1.358       .  S
C438        C439   1.411       .  A
C438        F443   1.358       .  S
C439        C440   1.409       .  A
C440        F441   1.358       .  S
C445        C446   1.406       .  A
C445        C450   1.395       .  A
C445        F452   1.358       .  S
C446        C447   1.403       .  A
C447        C448   1.398       .  A
C447        F454   1.358       .  S
C448        C449   1.414       .  A
C448        F453   1.358       .  S
C449        C450   1.408       .  A
C450        F451   1.358       .  S
C455        C456   1.409       .  A
C455        C460   1.402   1_556  A
C455        F462   1.357       .  S
C456        C457   1.412   1_556  A
C457        C458   1.405       .  A
C457        F464   1.359       .  S
C458        C459   1.410       .  A
C458        F463   1.357       .  S
C459        C460   1.410       .  A
C460        F461   1.358       .  S
C465        C466   1.404       .  A
C465        C470   1.393       .  A
C465        F472   1.359   1_655  S
C466        C467   1.406       .  A
C467        C468   1.404       .  A
C467        F474   1.357       .  S
C468        C469   1.407       .  A
C468        F473   1.357       .  S
C469        C470   1.407       .  A
C470        F471   1.359       .  S
C475        C476   1.410       .  A
C475        C480   1.399       .  A
C475        F482   1.358       .  S
C476        C477   1.412       .  A
C477        C478   1.401       .  A
C477        F484   1.358       .  S
C478        C479   1.406       .  A
C478        F483   1.358       .  S
C479        C480   1.407       .  A
C480        F481   1.358       .  S
C485        C486   1.406       .  A
C485        C490   1.397       .  A
C485        F492   1.358       .  S
C486        C487   1.405       .  A
C487        C488   1.397       .  A
C487        F494   1.358       .  S
C488        C489   1.413       .  A
C488        F493   1.358       .  S
C489        C490   1.409       .  A
C490        F491   1.357       .  S
C495        C496   1.407       .  A
C495        C500   1.397       .  A
C495        F502   1.358       .  S
C496        C497   1.406       .  A
C497        C498   1.403       .  A
C497        F504   1.358       .  S
C498        C499   1.413       .  A
C498        F503   1.358       .  S
C499        C500   1.409       .  A
C500        F501   1.358       .  S
C505        C506   1.405       .  A
C505        C510   1.397       .  A
C505        F512   1.358       .  S
C506        C507   1.410       .  A
C507        C508   1.399       .  A
C507        F514   1.358       .  S
C508        C509   1.408       .  A
C508        F513   1.358       .  S
C509        C510   1.411       .  A
C510        F511   1.358       .  S
C515        C516   1.409       .  A
C515        C520   1.395       .  A
C515        F522   1.358       .  S
C516        C517   1.410       .  A
C517        C518   1.400       .  A
C517        F524   1.358       .  S
C518        C519   1.408       .  A
C518        F523   1.358       .  S
C519        C520   1.407       .  A
C520        F521   1.358       .  S
C525        C526   1.408       .  A
C525        C530   1.399       .  A
C525        F532   1.358       .  S
C526        C527   1.409       .  A
C527        C528   1.400       .  A
C527        F534   1.358       .  S
C528        C529   1.410       .  A
C528        F533   1.358       .  S
C529        C530   1.408       .  A
C530        F531   1.357       .  S
C535        C536   1.403       .  A
C535        C540   1.395       .  A
C535        F542   1.358   1_545  S
C536        C537   1.406       .  A
C537        C538   1.405       .  A
C537        F544   1.358       .  S
C538        C539   1.408       .  A
C538        F543   1.358       .  S
C539        C540   1.404       .  A
C540        F541   1.358   1_655  S
