geometry optimzed in LAMMPS
_audit_creation_date              2020-12-01 
_audit_creation_method            'lammps2cif' 
_symmetry_space_group_name_H-M    'P1' 
_symmetry_Int_Tables_number       1 
_symmetry_cell_setting            triclinic 
loop_ 
_symmetry_equiv_pos_as_xyz 
  x,y,z 
_cell_length_a                    43.15779325 
_cell_length_b                    43.06738159524175 
_cell_length_c                    62.04967276721906 
_cell_angle_alpha                 89.15514741081367 
_cell_angle_beta                  90.28315643067056 
_cell_angle_gamma                 119.94023235704418 
loop_ 
_atom_site_label 
_atom_site_type_symbol 
_atom_site_fract_x 
_atom_site_fract_y 
_atom_site_fract_z 
_atom_site_charge 
O1          O  0.03469012  0.43256053  0.24287315    -0.74400
O2          O  0.02339721  0.33852995  0.25483093    -0.74400
O3          O  0.02106611  0.37456619  0.21961371    -0.74400
O4          O  0.04142058  0.39897280  0.27829232    -0.74500
O5          O  0.48432202  0.37886340  0.29088584    -0.74400
O6          O  0.46566110  0.35420336  0.22996985    -0.74400
O7          O  0.46759740  0.31917110  0.26639966    -0.74400
O8          O  0.47683119  0.40952225  0.25464982    -0.74400
Ni9        Ni  0.03219658  0.38680944  0.24878448     1.25400
Ni10       Ni  0.47148299  0.36433793  0.26080340     1.25400
C11         C  0.00654907  0.43568960  0.24387870     0.87800
C12         C  0.99199198  0.31228227  0.25949353     0.87800
C13         C  0.49316724  0.36446553  0.21761576     0.87800
C14         C  0.01705342  0.39481184  0.29149915     0.87900
O15         O  0.03465148  0.44164856  0.42325558    -0.74400
O16         O  0.12163932  0.43702085  0.41458598    -0.74400
O17         O  0.08761584  0.44534179  0.44871055    -0.74400
O18         O  0.06541897  0.42847843  0.38952907    -0.74500
O19         O  0.09471861  0.48681315  0.38170015    -0.74400
O20         O  0.11735743  0.50444791  0.44297337    -0.74400
O21         O  0.15006391  0.49565921  0.40789696    -0.74400
O22         O  0.06580374  0.50005338  0.41624638    -0.74400
Ni23       Ni  0.07638463  0.43603292  0.41920099     1.25400
Ni24       Ni  0.10827341  0.49882491  0.41192371     1.25400
C25         C  0.03624970  0.47225471  0.42102744     0.87800
C26         C  0.15072960  0.46654787  0.41024325     0.87800
C27         C  0.10486791  0.47702009  0.45588076     0.87800
C28         C  0.07449542  0.45400352  0.37591306     0.87900
O29         O  0.44172178  0.05101314  0.24725515    -0.74400
O30         O  0.43465600  0.13716365  0.25689548    -0.74400
O31         O  0.44711446  0.10643847  0.22277522    -0.74400
O32         O  0.42442396  0.07890964  0.28104968    -0.74500
O33         O  0.48200832  0.10828603  0.29031064    -0.74400
O34         O  0.50516978  0.13759981  0.23032466    -0.74400
O35         O  0.49222152  0.16538615  0.26556990    -0.74400
O36         O  0.49946262  0.08325863  0.25549138    -0.74400
Ni37       Ni  0.43483721  0.09229877  0.25173213     1.25400
Ni38       Ni  0.49670355  0.12473178  0.26073149     1.25400
C39         C  0.47262598  0.05359921  0.25008116     0.90200
C40         C  0.46336754  0.16602619  0.26250606     0.87800
C41         C  0.47934466  0.12598132  0.21663554     0.87800
C42         C  0.44872477  0.08823586  0.29523098     0.87900
O43         O  0.42732228  0.04220986  0.42552101    -0.74400
O44         O  0.33495423  0.03663116  0.41766442    -0.74400
O45         O  0.37203905  0.03140757  0.45112525    -0.74400
O46         O  0.39268435  0.05187911  0.39195995    -0.74500
O47         O  0.37003929  0.99421824  0.38449658    -0.74400
O48         O  0.33042236  0.45385641  0.44003627    -0.74400
O49         O  0.30010065  0.46491818  0.40450887    -0.74400
O50         O  0.38733723  0.46729809  0.41568652    -0.74400
Ni51       Ni  0.38261341  0.04266084  0.42169049     1.25400
Ni52       Ni  0.34358462  0.46518190  0.40971103     1.25400
C53         C  0.42825450  0.01283155  0.42414731     0.87800
C54         C  0.30772243  0.00582288  0.41329288     0.87800
C55         C  0.35483717  0.99930281  0.45823396     0.87800
C56         C  0.38671496  0.02744949  0.37850113     0.87900
O57         O  0.07700407  0.03812456  0.58243821    -0.74400
O58         O  0.16453934  0.03545349  0.59434490    -0.74400
O59         O  0.12375909  0.02751530  0.55947261    -0.74400
O60         O  0.11963896  0.05110567  0.61739571    -0.74500
O61         O  0.08631688  0.99379930  0.62689837    -0.74400
O62         O  0.09326848  0.45233464  0.56293888    -0.74400
O63         O  0.13648053  0.46485474  0.59783311    -0.74400
O64         O  0.04989362  0.46490604  0.58804500    -0.74400
Ni65       Ni  0.12252205  0.04014060  0.58825775     1.25400
Ni66       Ni  0.09259798  0.46410204  0.59327583     1.25400
C67         C  0.04696759  0.00857331  0.58444144     0.87800
C68         C  0.16152114  0.00503875  0.59987386     0.87800
C69         C  0.10843771  0.99513626  0.55342537     0.87800
C70         C  0.10109846  0.02737246  0.63158847     0.87900
O71         O  0.07029354  0.05492662  0.76202111    -0.74400
O72         O  0.16124205  0.14240218  0.75221203    -0.74400
O73         O  0.11821199  0.11011237  0.78634492    -0.74400
O74         O  0.11543757  0.08406904  0.72817966    -0.74500
O75         O  0.08604518  0.11210517  0.71832290    -0.74400
O76         O  0.08895433  0.13924350  0.77868595    -0.74400
O77         O  0.13086337  0.16976038  0.74338158    -0.74400
O78         O  0.04285608  0.08515889  0.75305422    -0.74400
Ni79       Ni  0.11740668  0.09692939  0.75740980     1.25400
Ni80       Ni  0.08630022  0.12774030  0.74797932     1.25400
C81         C  0.04123875  0.05596876  0.75892115     0.87800
C82         C  0.16060864  0.17121959  0.74707770     0.87800
C83         C  0.10414386  0.12833257  0.79246860     0.87800
C84         C  0.09927601  0.09186667  0.71373419     0.87900
O85         O  0.37962640  0.43956336  0.58181891    -0.74400
O86         O  0.28745669  0.43615575  0.58847990    -0.74400
O87         O  0.33069358  0.44238887  0.55518160    -0.74400
O88         O  0.33436216  0.42771980  0.61491768    -0.74500
O89         O  0.36489376  0.48647208  0.62062811    -0.74400
O90         O  0.35710358  0.50146288  0.55905412    -0.74400
O91         O  0.31808043  0.49452255  0.59471053    -0.74400
O92         O  0.40554465  0.49853182  0.58527293    -0.74400
Ni93       Ni  0.33186174  0.43425732  0.58496185     1.25400
Ni94       Ni  0.36226836  0.49726246  0.59011845     1.25400
C95         C  0.40815408  0.47073264  0.58274801     0.87800
C96         C  0.28824796  0.46603086  0.59225010     0.87800
C97         C  0.34290246  0.47356663  0.54699135     0.87800
C98         C  0.35136131  0.45383220  0.62757677     0.87900
O99         O  0.37177919  0.43268028  0.76139998    -0.74400
O100        O  0.28102268  0.34537730  0.75196315    -0.74400
O101        O  0.32288983  0.37839160  0.78627946    -0.74400
O102        O  0.32847994  0.40274680  0.72702219    -0.74500
O103        O  0.35897557  0.37529345  0.71964924    -0.74400
O104        O  0.35147891  0.34836632  0.78045020    -0.74400
O105        O  0.31192632  0.31803769  0.74477325    -0.74400
O106        O  0.39946977  0.40202373  0.75502916    -0.74400
Ni107      Ni  0.32486710  0.39075937  0.75677744     1.25400
Ni108      Ni  0.35628072  0.35971776  0.74967065     1.25400
C109        C  0.40084555  0.43127298  0.75984510     0.87800
C110        C  0.28211857  0.31675048  0.74763558     0.87800
C111        C  0.33689238  0.36042040  0.79350695     0.87800
C112        C  0.34595378  0.39522126  0.71358233     0.87900
O113        O  0.41635432  0.39130696  0.91776060    -0.74400
O114        O  0.32943985  0.29854501  0.92791489    -0.74400
O115        O  0.36091453  0.34295040  0.89395122    -0.74400
O116        O  0.38804364  0.34464999  0.95159384    -0.74500
O117        O  0.36065677  0.37408308  0.96154874    -0.74400
O118        O  0.33116039  0.37129766  0.90120376    -0.74400
O119        O  0.30220192  0.32880142  0.93702474    -0.74400
O120        O  0.38503316  0.41755525  0.92648369    -0.74400
Ni121      Ni  0.37463945  0.34325399  0.92259507     1.25400
Ni122      Ni  0.34350111  0.37368896  0.93198594     1.25400
C123        C  0.41422745  0.41991090  0.92051059     0.87800
C124        C  0.30091694  0.29921029  0.93336004     0.87800
C125        C  0.34309733  0.35745519  0.88746009     0.87800
C126        C  0.38109899  0.36086064  0.96608621     0.87900
O127        O  0.44808328  0.39686622  0.09601607    -0.74400
O128        O  0.44540793  0.30617941  0.08671102    -0.74400
O129        O  0.45858644  0.35023763  0.12004390    -0.74400
O130        O  0.42944724  0.35080736  0.06281099    -0.74500
O131        O  0.48587502  0.38047245  0.05131459    -0.74400
O132        O  0.51617133  0.38084807  0.11076458    -0.74400
O133        O  0.50212580  0.33755304  0.07630234    -0.74400
O134        O  0.50460495  0.42498325  0.08502811    -0.74400
Ni135      Ni  0.44329230  0.34985197  0.09165359     1.25400
Ni136      Ni  0.50418508  0.38184732  0.08040129     1.25400
C137        C  0.47767875  0.42617621  0.09216162     0.87800
C138        C  0.47463288  0.30745133  0.08071431     0.87800
C139        C  0.49139446  0.36571529  0.12519628     0.87800
C140        C  0.45203952  0.36644060  0.04770097     0.87900
O141        O  0.03644635  0.09103991  0.91987775    -0.74400
O142        O  0.12578910  0.18095381  0.92916611    -0.74400
O143        O  0.08926141  0.14168609  0.89461516    -0.74400
O144        O  0.06975256  0.13275461  0.95414326    -0.74500
O145        O  0.09752848  0.10143870  0.95956225    -0.74400
O146        O  0.11974280  0.11270861  0.89760483    -0.74400
O147        O  0.15325531  0.14937488  0.93398409    -0.74400
O148        O  0.06782750  0.06312682  0.92354099    -0.74400
Ni149      Ni  0.07940151  0.13778789  0.92433661     1.25400
Ni150      Ni  0.11075128  0.10569755  0.92885338     1.25400
C151        C  0.03807968  0.06189047  0.92049375     0.87800
C152        C  0.15462380  0.17953256  0.93269315     0.87800
C153        C  0.10666596  0.12853623  0.88591920     0.87800
C154        C  0.07902295  0.11527328  0.96667627     0.87900
O155        O  0.02275110  0.09431962  0.09522946    -0.74400
O156        O  0.01590585  0.17985936  0.08457909    -0.74400
O157        O  0.00818629  0.13752347  0.11875898    -0.74400
O158        O  0.03532782  0.13845776  0.06106272    -0.74500
O159        O  0.48420950  0.10900607  0.05050572    -0.74400
O160        O  0.46163783  0.11490585  0.11064531    -0.74400
O161        O  0.47135670  0.15497473  0.07440977    -0.74400
O162        O  0.46987498  0.06808188  0.08652787    -0.74400
Ni163      Ni  0.02255466  0.13892395  0.09009514     1.25400
Ni164      Ni  0.46967722  0.11084036  0.08012066     1.25400
C165        C  0.99406870  0.06377122  0.09294712     0.87800
C166        C  0.98567110  0.17636193  0.07862898     0.87800
C167        C  0.48820814  0.13039076  0.12374478     0.87800
C168        C  0.01287181  0.11899325  0.04684128     0.87900
C169        C  0.03383027  0.08272507  0.99552263    -0.05700
C170        C  0.06694509  0.11229357  0.98939732     0.00200
C171        C  0.08189245  0.14316362  0.00230022    -0.08400
C172        C  0.06238639  0.14440781  0.02006949    -0.05700
C173        C  0.02850888  0.11552880  0.02595195     0.00200
C174        C  0.01464478  0.08342446  0.01390101    -0.08300
C175        C  0.98006901  0.04997632  0.02032206     0.62100
H176        H  0.02228852  0.05960830  0.98518590     0.12800
H177        H  0.07365494  0.16853796  0.02951012     0.12800
C178        C  0.11841450  0.17504118  0.99699867     0.62300
F179        F  0.97342020  0.02104829  0.00769882    -0.22800
F180        F  0.95176091  0.05620612  0.01799988    -0.20200
F181        F  0.46770170  0.04573478  0.03266946    -0.19800
F182        F  0.11693538  0.19120448  0.97791381    -0.19900
F183        F  0.14300144  0.16356786  0.99487183    -0.20200
F184        F  0.13038959  0.20051941  0.01299079    -0.22900
C185        C  0.99659966  0.27073486  0.07756173    -0.05700
C186        C  0.47919406  0.27509580  0.07947210     0.00200
C187        C  0.45078780  0.23930038  0.07816187    -0.08400
C188        C  0.45903390  0.21152160  0.07685612    -0.05700
C189        C  0.49450730  0.21768501  0.07728448     0.00200
C190        C  0.00627328  0.24395835  0.07810703    -0.08300
C191        C  0.04569701  0.25518404  0.07936601     0.62100
H192        H  0.01765249  0.29840701  0.07850247     0.12800
H193        H  0.43715843  0.18422946  0.07611215     0.12800
C194        C  0.41190923  0.23002741  0.07829704     0.62300
F195        F  0.06763116  0.29201337  0.07800241    -0.22800
F196        F  0.05462586  0.24046325  0.06249336    -0.20200
F197        F  0.05271251  0.24385482  0.09881990    -0.19800
F198        F  0.40603472  0.24862374  0.06192912    -0.19900
F199        F  0.40369919  0.23886984  0.09796808    -0.20200
F200        F  0.38876228  0.19383050  0.07521140    -0.22900
C201        C  0.51851438  0.49190404  0.09565711    -0.05700
C202        C  0.48286147  0.46280319  0.09555951     0.00200
C203        C  0.45458817  0.47022070  0.09725652    -0.08400
C204        C  0.46346083  0.00531153  0.10562091    -0.05700
C205        C  0.49471796  0.03217114  0.09533814     0.00200
C206        C  0.01739175  0.02125687  0.08658991    -0.08300
C207        C  0.05261099  0.05054661  0.07716750     0.62100
H208        H  0.00478000  0.46430686  0.11355621     0.12800
H209        H  0.44642083  0.01336989  0.11367823     0.12800
C210        C  0.41556989  0.44080125  0.09803601     0.62300
F211        F  0.07240161  0.03680612  0.06807317    -0.22800
F212        F  0.07295423  0.07364244  0.09330288    -0.20200
F213        F  0.04641470  0.06959058  0.06128297    -0.19800
F214        F  0.40962609  0.41913158  0.11600155    -0.19900
F215        F  0.40707336  0.42054804  0.07957448    -0.20200
F216        F  0.39256988  0.45440760  0.09928885    -0.22900
C217        C  0.23827702  0.27011486  0.92157098    -0.05700
C218        C  0.26442873  0.26700497  0.93351248     0.00200
C219        C  0.25366306  0.23657235  0.94694776    -0.08400
C220        C  0.21722392  0.20933075  0.94689988    -0.05700
C221        C  0.19104071  0.21210849  0.93444449     0.00200
C222        C  0.20186019  0.24357187  0.92185604    -0.08300
C223        C  0.17544379  0.24926575  0.90855215     0.62100
H224        H  0.24679087  0.29429230  0.91203662     0.12800
H225        H  0.20886655  0.18540400  0.95670093     0.12800
C226        C  0.28016956  0.23374519  0.96182566     0.62300
F227        F  0.19202527  0.28124176  0.89698554    -0.22800
F228        F  0.15050702  0.25012295  0.92206462    -0.20200
F229        F  0.15829054  0.22184578  0.89399281    -0.19800
F230        F  0.29507140  0.26268263  0.97552502    -0.19900
F231        F  0.30703864  0.23366811  0.94983434    -0.20200
F232        F  0.26406930  0.20270794  0.97431200    -0.22900
C233        C  0.44638769  0.48201235  0.93322929    -0.05700
C234        C  0.44483305  0.45722331  0.91807672     0.00200
C235        C  0.46864601  0.47003980  0.90031018    -0.08400
C236        C  0.00813422  0.99818275  0.93128873    -0.05700
C237        C  0.00633587  0.02510439  0.91903767     0.00200
C238        C  0.46750706  0.01334067  0.90519427    -0.08300
C239        C  0.46062198  0.04211191  0.89579064     0.62100
H240        H  0.42768031  0.47214882  0.94659418     0.12800
H241        H  0.03065567  0.00592790  0.94196891     0.12800
C242        C  0.97824363  0.43240710  0.93812870     0.62300
F243        F  0.42764949  0.02761298  0.88577008    -0.22800
F244        F  0.48651706  0.06240713  0.88058183    -0.20200
F245        F  0.46115365  0.06397905  0.91206287    -0.19800
F246        F  0.97697041  0.40481114  0.92633189    -0.19900
F247        F  0.47213066  0.41906338  0.88991695    -0.20200
F248        F  0.00986001  0.44810543  0.94968543    -0.22900
C249        C  0.42686647  0.35555023  0.98820200    -0.05700
C250        C  0.39931522  0.36451004  0.98754206     0.00200
C251        C  0.39109160  0.37610181  0.00688276    -0.08400
C252        C  0.41020923  0.37772448  0.02584566    -0.05700
C253        C  0.43724237  0.36837612  0.02628685     0.00200
C254        C  0.44561390  0.35692105  0.00716229    -0.08300
C255        C  0.47321460  0.34483256  0.00696960     0.62100
H256        H  0.43389628  0.34711729  0.97358651     0.12800
H257        H  0.40384634  0.38601607  0.04078235     0.12800
C258        C  0.36207053  0.38613501  0.00782624     0.62300
F259        F  0.47509072  0.33148326  0.98715905    -0.22800
F260        F  0.46448405  0.31802789  0.02229674    -0.20200
F261        F  0.99677593  0.38174158  0.00734332    -0.19800
F262        F  0.32992814  0.35766849  0.00108850    -0.19900
F263        F  0.37129348  0.41572199  0.99469552    -0.20200
F264        F  0.35720198  0.39463230  0.02850293    -0.22900
C265        C  0.31030043  0.35783192  0.82960561    -0.05700
C266        C  0.33696677  0.35587601  0.81745161     0.00200
C267        C  0.36525386  0.35507733  0.82855832    -0.08400
C268        C  0.36588735  0.35657580  0.85115387    -0.05700
C269        C  0.33940658  0.35856466  0.86343300     0.00200
C270        C  0.31106524  0.35938122  0.85239121    -0.08300
C271        C  0.28178590  0.36167764  0.86439616     0.62100
H272        H  0.28889701  0.35877125  0.82100633     0.12800
H273        H  0.38794233  0.35657069  0.85949781     0.12800
C274        C  0.39544326  0.35374444  0.81684700     0.62300
F275        F  0.25582402  0.36029977  0.85060325    -0.22800
F276        F  0.29628291  0.39361160  0.87537937    -0.20200
F277        F  0.26537248  0.33334284  0.87885027    -0.19800
F278        F  0.41234564  0.38270746  0.80280300    -0.19900
F279        F  0.38181606  0.32216666  0.80554572    -0.20200
F280        F  0.42105125  0.35496753  0.83088996    -0.22900
C281        C  0.36606112  0.41829276  0.65298778    -0.05700
C282        C  0.35545848  0.44419597  0.65013304     0.00200
C283        C  0.34379209  0.45510091  0.66815111    -0.08400
C284        C  0.34226108  0.43902234  0.68838364    -0.05700
C285        C  0.35123632  0.41170202  0.69130140     0.00200
C286        C  0.36432516  0.40184493  0.67319459    -0.08300
C287        C  0.37568830  0.37370720  0.67474267     0.62100
H288        H  0.37485176  0.41027626  0.63892025     0.12800
H289        H  0.33322015  0.44751269  0.70209162     0.12800
C290        C  0.33127636  0.48223828  0.66580180     0.62300
F291        F  0.38634313  0.36764217  0.65498135    -0.22800
F292        F  0.34740875  0.34155820  0.68206792    -0.20200
F293        F  0.40426719  0.38497275  0.68871532    -0.19800
F294        F  0.30107499  0.97919860  0.65991535    -0.19900
F295        F  0.35868942  0.02158429  0.66500342    -0.20200
F296        F  0.32267366  0.99483069  0.69331994    -0.22900
C297        C  0.13775177  0.14317245  0.82693580    -0.05700
C298        C  0.10570205  0.13492639  0.81609654     0.00200
C299        C  0.07496970  0.12630170  0.82845188    -0.08400
C300        C  0.07694475  0.12437147  0.85107047    -0.05700
C301        C  0.10837075  0.13055985  0.86186882     0.00200
C302        C  0.13982519  0.14176914  0.84964889    -0.08300
C303        C  0.17549825  0.15325681  0.86043186     0.62100
H304        H  0.16108908  0.14980119  0.81738253     0.12800
H305        H  0.05343450  0.11741234  0.86060521     0.12800
C306        C  0.03982146  0.11763615  0.81787310     0.62300
F307        F  0.20325356  0.16635829  0.84562756    -0.22800
F308        F  0.17441673  0.12442252  0.87119973    -0.20200
F309        F  0.18288045  0.18010708  0.87496596    -0.19800
F310        F  0.02849945  0.08832797  0.80468427    -0.19900
F311        F  0.04433363  0.14679511  0.80573346    -0.20200
F312        F  0.01317427  0.10966405  0.83290612    -0.22900
C313        C  0.48190206  0.02837316  0.75612004    -0.05700
C314        C  0.00452072  0.02400208  0.76143286     0.00200
C315        C  0.00446840  0.48723870  0.76371718    -0.08400
C316        C  0.46598979  0.45595307  0.76569398    -0.05700
C317        C  0.43736883  0.46288398  0.76293743     0.00200
C318        C  0.44615664  0.00033109  0.75623689    -0.08300
C319        C  0.41660952  0.00793007  0.74963382     0.62100
H320        H  0.98056142  0.05761314  0.76054185     0.12800
H321        H  0.45985784  0.42848368  0.76777990     0.12800
C322        C  0.03120541  0.48135418  0.77649979     0.62300
F323        F  0.42972767  0.04360245  0.74410479    -0.22800
F324        F  0.39291006  0.99961481  0.76656311    -0.20200
F325        F  0.39869577  0.98762052  0.73193872    -0.19800
F326        F  0.04947609  0.50923228  0.79064874    -0.19900
F327        F  0.05517636  0.47958611  0.76256906    -0.20200
F328        F  0.01471027  0.44973254  0.78843712    -0.22900
C329        C  0.19049614  0.23566950  0.73581651    -0.05700
C330        C  0.19346281  0.20770478  0.74620204     0.00200
C331        C  0.22543669  0.21670909  0.75756184    -0.08400
C332        C  0.25310766  0.25271895  0.75751203    -0.05700
C333        C  0.24981438  0.28042008  0.74740451     0.00200
C334        C  0.21775239  0.27194367  0.73663625    -0.08300
C335        C  0.21238016  0.30089276  0.72604499     0.62100
H336        H  0.16604188  0.22906965  0.72734250     0.12800
H337        H  0.27779603  0.25980580  0.76588056     0.12800
C338        C  0.23027758  0.18919605  0.77048314     0.62300
F339        F  0.17993263  0.28673354  0.71543288    -0.22800
F340        F  0.23931700  0.32004586  0.71118197    -0.20200
F341        F  0.21299977  0.32389095  0.74158063    -0.19800
F342        F  0.22898419  0.16339888  0.75691815    -0.19900
F343        F  0.20360836  0.17329839  0.78585653    -0.20200
F344        F  0.26274119  0.20445394  0.78115139    -0.22900
C345        C  0.98291626  0.97058230  0.57514471    -0.05700
C346        C  0.01135619  0.00516748  0.57998922     0.00200
C347        C  0.50874484  0.52018830  0.59132312    -0.08400
C348        C  0.47236163  0.50995430  0.59096111    -0.05700
C349        C  0.44567213  0.47727102  0.58208799     0.00200
C350        C  0.44438204  0.95739161  0.58250715    -0.08300
C351        C  0.41493695  0.91836420  0.58383367     0.62100
H352        H  0.98919583  0.94976409  0.57168575     0.12800
H353        H  0.46449393  0.52766422  0.59822893     0.12800
C354        C  0.01442545  0.50239232  0.61941737     0.62300
F355        F  0.42835557  0.89510748  0.58402360    -0.22800
F356        F  0.39264056  0.91024622  0.56618657    -0.20200
F357        F  0.39546106  0.91228569  0.60259721    -0.19800
F358        F  0.04436481  0.53599234  0.61721480    -0.19900
F359        F  0.02461378  0.47826510  0.62653491    -0.20200
F360        F  0.51945897  0.57365504  0.60962272    -0.22900
C361        C  0.18856656  0.96827367  0.58997064    -0.05700
C362        C  0.19263532  0.99888915  0.60045736     0.00200
C363        C  0.23462046  0.51463656  0.59075136    -0.08400
C364        C  0.26191609  0.50581058  0.58968042    -0.05700
C365        C  0.25586685  0.47059996  0.59298992     0.00200
C366        C  0.21636355  0.96010239  0.58869455    -0.08300
C367        C  0.21113583  0.92892963  0.57495686     0.62100
H368        H  0.16332839  0.95105538  0.58216086     0.12800
H369        H  0.28879374  0.52708310  0.58609815     0.12800
C370        C  0.24465502  0.55380862  0.58893397     0.62300
F371        F  0.17833054  0.91266576  0.56466271    -0.22800
F372        F  0.21280568  0.90326424  0.58776299    -0.20200
F373        F  0.23740306  0.94103843  0.55923132    -0.19800
F374        F  0.23091374  0.56271958  0.60636794    -0.19900
F375        F  0.23139006  0.55980837  0.56997049    -0.20200
F376        F  0.28134688  0.57654426  0.58889199    -0.22900
C377        C  0.09991037  0.07541604  0.65304000    -0.05700
C378        C  0.09657509  0.04095392  0.65297153     0.00200
C379        C  0.09121813  0.02264517  0.67297539    -0.08400
C380        C  0.09060295  0.03991664  0.69207197    -0.05700
C381        C  0.09541184  0.07490034  0.69214795     0.00200
C382        C  0.09976634  0.09282014  0.67217221    -0.08300
C383        C  0.10600334  0.13074132  0.67104454     0.62100
H384        H  0.10336396  0.08924521  0.63776945     0.12800
H385        H  0.08702787  0.02624265  0.70741587     0.12800
C386        C  0.08752615  0.98573846  0.67443252     0.62300
F387        F  0.11215998  0.14423679  0.65014394    -0.22800
F388        F  0.13552183  0.15306380  0.68329614    -0.20200
F389        F  0.07628771  0.13123125  0.67880974    -0.19800
F390        F  0.11699531  0.98659926  0.66509813    -0.19900
F391        F  0.05684361  0.96125001  0.66389029    -0.20200
F392        F  0.08518611  0.97399694  0.69557635    -0.22900
C393        C  0.32665848  0.49520718  0.48952537    -0.05700
C394        C  0.33379079  0.47181051  0.47758161     0.00200
C395        C  0.34270522  0.44845157  0.48869691    -0.08400
C396        C  0.34607710  0.45082665  0.51126693    -0.05700
C397        C  0.34067185  0.47544154  0.52312448     0.00200
C398        C  0.32970096  0.49730102  0.51215730    -0.08300
C399        C  0.32056144  0.52209598  0.52421612     0.62100
H400        H  0.31973264  0.51285781  0.48080693     0.12800
H401        H  0.35362427  0.43360001  0.51991914     0.12800
C402        C  0.33983709  0.93136212  0.48315171     0.62300
F403        F  0.30755168  0.53864291  0.51057085    -0.22800
F404        F  0.35079198  0.54853272  0.53417866    -0.20200
F405        F  0.29460755  0.50271565  0.53958285    -0.19800
F406        F  0.37053203  0.94120061  0.47131938    -0.19900
F407        F  0.31995218  0.39865953  0.46538351    -0.20200
F408        F  0.35831144  0.40202699  0.49085183    -0.22900
C409        C  0.40271583  0.07218744  0.34911067    -0.05700
C410        C  0.40074227  0.03997207  0.35618160     0.00200
C411        C  0.41651425  0.02456784  0.34323074    -0.08400
C412        C  0.43440948  0.04261517  0.32402143    -0.05700
C413        C  0.43654930  0.07494348  0.31736991     0.00200
C414        C  0.41987687  0.08964439  0.32983237    -0.08300
C415        C  0.41977295  0.12344552  0.32250940     0.62100
H416        H  0.44177746  0.57650695  0.37181217     0.12800
H417        H  0.44596696  0.03104930  0.31362263     0.12800
C418        C  0.41463632  0.98949336  0.34950131     0.62300
F419        F  0.49192914  0.63047145  0.36102848    -0.22800
F420        F  0.40016976  0.11692620  0.30375115    -0.20200
F421        F  0.51393182  0.61807497  0.33190511    -0.19800
F422        F  0.37928791  0.96245978  0.35041688    -0.19900
F423        F  0.43042984  0.99257024  0.36939129    -0.20200
F424        F  0.43209232  0.97974140  0.33472946    -0.22900
C425        C  0.51230709  0.13074576  0.15968542    -0.05700
C426        C  0.48443061  0.13044146  0.14751410     0.00200
C427        C  0.45691387  0.13272966  0.15828754    -0.08400
C428        C  0.45773102  0.13378762  0.18100252    -0.05700
C429        C  0.48516366  0.13292335  0.19311483     0.00200
C430        C  0.51355429  0.13247684  0.18220716    -0.08300
C431        C  0.54457109  0.13270232  0.19407300     0.62100
H432        H  0.53334623  0.12908155  0.15131929     0.12800
H433        H  0.43625239  0.13436167  0.18957567     0.12800
C434        C  0.42721206  0.13437775  0.14604888     0.62300
F435        F  0.56888905  0.13156645  0.18009848    -0.22800
F436        F  0.53198515  0.10321464  0.20775376    -0.20200
F437        F  0.56265268  0.16378691  0.20582227    -0.19800
F438        F  0.91010914  0.13128987  0.13709346    -0.19900
F439        F  0.44175185  0.16253782  0.13130357    -0.20200
F440        F  0.40490457  0.13951610  0.15967888    -0.22900
C441        C  0.12906195  0.46851123  0.49046948    -0.05700
C442        C  0.10788978  0.48019827  0.47963290     0.00200
C443        C  0.08396000  0.48665925  0.49167843    -0.08400
C444        C  0.09527341  0.00773380  0.51691429    -0.05700
C445        C  0.10403086  0.47086898  0.52505831     0.00200
C446        C  0.12798212  0.46433984  0.51315047    -0.08300
C447        C  0.15245398  0.45356455  0.52448219     0.62100
H448        H  0.14639774  0.46261363  0.48101338     0.12800
H449        H  0.08284607  0.02104396  0.52482157     0.12800
C450        C  0.05919034  0.49747672  0.48076437     0.62300
F451        F  0.17329184  0.44773866  0.51001450    -0.22800
F452        F  0.11764486  0.92972783  0.54665655    -0.20200
F453        F  0.17499441  0.48032955  0.53831450    -0.19800
F454        F  0.05120932  0.99717043  0.46985444    -0.19900
F455        F  0.07890235  0.52811423  0.46837222    -0.20200
F456        F  0.03948758  0.50439429  0.49551081    -0.22900
C457        C  0.22239477  0.01136956  0.40566829    -0.05700
C458        C  0.18662543  0.46920313  0.40827980     0.00200
C459        C  0.19712537  0.44789966  0.42052006    -0.08400
C460        C  0.23324640  0.45642252  0.41976973    -0.05700
C461        C  0.27007303  0.99863751  0.41373541     0.00200
C462        C  0.25910674  0.02207770  0.40510362    -0.08300
C463        C  0.28581556  0.05787297  0.39496999     0.62100
H464        H  0.21421430  0.02950138  0.39900845     0.12800
H465        H  0.24166029  0.44035466  0.42896749     0.12800
C466        C  0.17105168  0.41739751  0.43507231     0.62300
F467        F  0.26919040  0.07515892  0.38570026    -0.22800
F468        F  0.30504556  0.05270371  0.37903800    -0.20200
F469        F  0.30904084  0.08001260  0.41054626    -0.19800
F470        F  0.14409209  0.39112659  0.42285185    -0.19900
F471        F  0.15642391  0.43016111  0.44986475    -0.20200
F472        F  0.18750230  0.40173525  0.44645998    -0.22900
C473        C  0.44209827  0.45657401  0.42676883    -0.05700
C474        C  0.46131591  0.01066224  0.42685784     0.00200
C475        C  0.49366402  0.03422795  0.41623198    -0.08400
C476        C  0.01111007  0.00455337  0.43401093    -0.05700
C477        C  0.00457044  0.47740424  0.42346148     0.00200
C478        C  0.47056419  0.44952571  0.42778649    -0.08300
C479        C  0.46252967  0.41095387  0.42667538     0.62100
H480        H  0.41531394  0.43414465  0.42508364     0.12800
H481        H  0.03805352  0.02567229  0.43736140     0.12800
C482        C  0.99163744  0.04998614  0.44059195     0.62300
F483        F  0.42621622  0.38681950  0.42550113    -0.22800
F484        F  0.47535234  0.40247703  0.44498276    -0.20200
F485        F  0.47837836  0.40651713  0.40857436    -0.19800
F486        F  0.96970418  0.04754778  0.45749584    -0.19900
F487        F  0.47446053  0.06140184  0.38973798    -0.20200
F488        F  0.02668499  0.07086566  0.44732373    -0.22900
C489        C  0.45521294  0.25021822  0.25394662    -0.05700
C490        C  0.48564896  0.27582558  0.26514772     0.00200
C491        C  0.00936234  0.26453481  0.26850824    -0.08400
C492        C  0.99909183  0.22793032  0.26960199    -0.05700
C493        C  0.46599829  0.20194531  0.26511896     0.00200
C494        C  0.44501790  0.21349927  0.25358836    -0.08300
C495        C  0.41263068  0.18776290  0.24057721     0.62100
H496        H  0.43977391  0.25951126  0.24494065     0.12800
H497        H  0.01877481  0.22104730  0.27502305     0.12800
C498        C  0.04709508  0.29247386  0.27495619     0.62300
F499        F  0.39597929  0.20471103  0.23087253    -0.22800
F500        F  0.38794386  0.16096819  0.25399538    -0.20200
F501        F  0.42288029  0.17278935  0.22451782    -0.19800
F502        F  0.04586166  0.31496390  0.29019724    -0.19900
F503        F  0.06575610  0.31229617  0.25700429    -0.20200
F504        F  0.06588908  0.27708919  0.28375572    -0.22900
C505        C  0.95331638  0.95325247  0.24556487    -0.05700
C506        C  0.50610128  0.47064559  0.24670064     0.00200
C507        C  0.52839556  0.50208217  0.25813114    -0.08400
C508        C  0.51862729  0.52864730  0.25926231    -0.05700
C509        C  0.47935126  0.02285314  0.24861669     0.00200
C510        C  0.94362968  0.98010438  0.24563237    -0.08300
C511        C  0.90550161  0.97030284  0.24025437     0.62100
H512        H  0.93339199  0.92615907  0.24142153     0.12800
H513        H  0.53518977  0.55215320  0.26870122     0.12800
C514        C  0.56146581  0.50696914  0.26985130     0.62300
F515        F  0.88463409  0.93449380  0.23510050    -0.22800
F516        F  0.90537991  0.99047632  0.22273923    -0.20200
F517        F  0.88996466  0.97665096  0.25783752    -0.19800
F518        F  0.58486873  0.50574109  0.25520636    -0.19900
F519        F  0.55190650  0.48006881  0.28514147    -0.20200
F520        F  0.57927062  0.53947443  0.28027882    -0.22900
C521        C  0.06384940  0.44150205  0.31487761    -0.05700
C522        C  0.02910136  0.41125975  0.31334420     0.00200
C523        C  0.00853048  0.39774830  0.33244056    -0.08400
C524        C  0.02415377  0.41384080  0.35225398    -0.05700
C525        C  0.05919575  0.44342282  0.35375899     0.00200
C526        C  0.07880911  0.45851369  0.33458251    -0.08300
C527        C  0.11551495  0.49187763  0.33487866     0.62100
H528        H  0.07971946  0.45179097  0.30036521     0.12800
H529        H  0.00903302  0.40296323  0.36701331     0.12800
C530        C  0.46794280  0.37964126  0.33658769     0.62300
F531        F  0.13032611  0.50170298  0.31444508    -0.22800
F532        F  0.13844092  0.48593909  0.34766643    -0.20200
F533        F  0.11273591  0.52013807  0.34298672    -0.19800
F534        F  0.46163156  0.34633454  0.33023812    -0.19900
F535        F  0.45178559  0.39212178  0.32232453    -0.20200
F536        F  0.45219125  0.37559534  0.35659902    -0.22900
C537        C  0.01492084  0.37644628  0.17548760    -0.05700
C538        C  0.49105953  0.36321905  0.19389444     0.00200
C539        C  0.47546831  0.33100547  0.18232754    -0.08400
C540        C  0.47926659  0.33290743  0.15973043    -0.05700
C541        C  0.49842398  0.36591339  0.14853769     0.00200
C542        C  0.01368795  0.37497062  0.15282301    -0.08300
C543        C  0.04746007  0.39824641  0.13984370     0.62100
H544        H  0.03963392  0.39556551  0.18311860     0.12800
H545        H  0.46612575  0.30855359  0.15045287     0.12800
C546        C  0.45556411  0.29504676  0.19388279     0.62300
F547        F  0.07694849  0.41714394  0.15293220    -0.22800
F548        F  0.04324308  0.42275664  0.12737202    -0.20200
F549        F  0.05457043  0.37682642  0.12672336    -0.19800
F550        F  0.42677182  0.29270467  0.20500409    -0.19900
F551        F  0.47827571  0.29157314  0.20825682    -0.20200
F552        F  0.44282276  0.26682034  0.17967990    -0.22900
O553        O  0.02345462  0.93017354  0.25094204    -0.74400
O554        O  0.02786997  0.84259239  0.25718724    -0.74400
O555        O  0.01631651  0.87774556  0.22473559    -0.74400
O556        O  0.03984811  0.89786960  0.28330338    -0.74500
O557        O  0.48851365  0.87896935  0.28852729    -0.74400
O558        O  0.46604717  0.85441435  0.22781874    -0.74400
O559        O  0.47362088  0.82102092  0.26320701    -0.74400
O560        O  0.47539182  0.90885948  0.25349195    -0.74400
Ni561      Ni  0.02890578  0.88806349  0.25383720     1.25400
Ni562      Ni  0.47382677  0.86471565  0.25860657     1.25400
C563        C  0.99309155  0.92845066  0.25398005     0.87800
C564        C  0.99882606  0.81340949  0.26199502     0.87800
C565        C  0.49269683  0.86587898  0.21462491     0.87800
C566        C  0.01611558  0.88858648  0.29791163     0.87900
O567        O  0.03936510  0.93810404  0.42981068    -0.74400
O568        O  0.13098566  0.94174367  0.42203843    -0.74400
O569        O  0.09572538  0.95100547  0.45525503    -0.74400
O570        O  0.07160746  0.92397310  0.39697306    -0.74500
O571        O  0.09643182  0.98096201  0.38636282    -0.74400
O572        O  0.12031808  0.00879973  0.44630323    -0.74400
O573        O  0.15438237  0.99890145  0.41247157    -0.74400
O574        O  0.06599329  0.99536057  0.41950597    -0.74400
Ni575      Ni  0.08364878  0.93659704  0.42629184     1.25400
Ni576      Ni  0.11037402  0.99797680  0.41575555     1.25400
C577        C  0.03820561  0.96706554  0.42596965     0.87800
C578        C  0.15837716  0.97200680  0.41646065     0.87800
C579        C  0.11040440  0.98369846  0.46071104     0.87800
C580        C  0.07827413  0.94725071  0.38211007     0.87900
O581        O  0.45008238  0.55389028  0.24861757    -0.74400
O582        O  0.44459373  0.64113504  0.25677430    -0.74400
O583        O  0.45854521  0.60975954  0.22386320    -0.74400
O584        O  0.43040407  0.58143273  0.28129613    -0.74500
O585        O  0.48685800  0.60831446  0.29233916    -0.74400
O586        O  0.51613101  0.64029171  0.23268230    -0.74400
O587        O  0.50098689  0.66792277  0.26763329    -0.74400
O588        O  0.50717326  0.58510117  0.25804189    -0.74400
Ni589      Ni  0.44383209  0.59561844  0.25238891     1.25400
Ni590      Ni  0.50476182  0.62659944  0.26313922     1.25400
C591        C  0.48062945  0.55588292  0.25187233     0.90200
C592        C  0.47321551  0.66973757  0.26280984     0.87800
C593        C  0.49110959  0.62895496  0.21837655     0.87800
C594        C  0.45309803  0.58771538  0.29615375     0.87900
O595        O  0.41373291  0.52434019  0.42511209    -0.74400
O596        O  0.32372618  0.52211299  0.41370209    -0.74400
O597        O  0.35561292  0.51160272  0.44817915    -0.74400
O598        O  0.38465720  0.53933707  0.39051799    -0.74500
O599        O  0.36086324  0.48268293  0.38044642    -0.74400
O600        O  0.34475628  0.97289055  0.44523430    -0.74400
O601        O  0.31182707  0.97904777  0.40974976    -0.74400
O602        O  0.40010582  0.98347624  0.41990150    -0.74400
Ni603      Ni  0.37019646  0.52642214  0.41954293     1.25400
Ni604      Ni  0.35573084  0.98036220  0.41453060     1.25400
C605        C  0.41480163  0.49521959  0.42256982     0.87800
C606        C  0.29653098  0.49196643  0.40829230     0.87800
C607        C  0.33946463  0.47880337  0.45401319     0.87800
C608        C  0.38004458  0.51653205  0.37618454     0.87900
O609        O  0.07939396  0.52250737  0.57797573    -0.74400
O610        O  0.16846445  0.52131823  0.58661240    -0.74400
O611        O  0.12367492  0.51021460  0.55353057    -0.74400
O612        O  0.12643794  0.53883871  0.61088267    -0.74500
O613        O  0.09432073  0.48248924  0.62237171    -0.74400
O614        O  0.09212673  0.96905177  0.56712129    -0.74400
O615        O  0.13085394  0.97782674  0.60342977    -0.74400
O616        O  0.04637645  0.98010758  0.59089039    -0.74400
Ni617      Ni  0.12572137  0.52524873  0.58198439     1.25400
Ni618      Ni  0.08794595  0.97816409  0.59751651     1.25400
C619        C  0.04984573  0.49299932  0.58154379     0.87800
C620        C  0.16674313  0.49183809  0.59300255     0.87800
C621        C  0.10767100  0.47740509  0.54844518     0.87800
C622        C  0.10956941  0.51647663  0.62603049     0.87900
O623        O  0.08082769  0.54859883  0.75373086    -0.74400
O624        O  0.17209458  0.63789161  0.74742329    -0.74400
O625        O  0.12550686  0.60306325  0.77978735    -0.74400
O626        O  0.12911158  0.58003031  0.72158118    -0.74500
O627        O  0.09916123  0.60710430  0.71081868    -0.74400
O628        O  0.09709281  0.63260252  0.77078511    -0.74400
O629        O  0.14156050  0.66452905  0.73683446    -0.74400
O630        O  0.05414021  0.57947190  0.74437886    -0.74400
Ni631      Ni  0.12812737  0.59148848  0.75087747     1.25400
Ni632      Ni  0.09722580  0.62211214  0.74025420     1.25400
C633        C  0.05210677  0.55001975  0.74994781     0.87800
C634        C  0.17095170  0.66642296  0.74209581     0.87800
C635        C  0.11049727  0.62078668  0.78517891     0.87800
C636        C  0.11290446  0.58714199  0.70679550     0.87900
O637        O  0.37113257  0.95130737  0.58355745    -0.74400
O638        O  0.28079193  0.94919382  0.59316395    -0.74400
O639        O  0.32322712  0.95837578  0.55900433    -0.74400
O640        O  0.32692379  0.93715646  0.61749194    -0.74500
O641        O  0.35670434  0.99502013  0.62570420    -0.74400
O642        O  0.35431928  0.01696257  0.56465353    -0.74400
O643        O  0.31194558  0.00747239  0.59971293    -0.74400
O644        O  0.39941932  0.00917588  0.59122950    -0.74400
Ni645      Ni  0.32429563  0.94695671  0.58813419     1.25400
Ni646      Ni  0.35636837  0.00925153  0.59564964     1.25400
C647        C  0.40050568  0.98134662  0.58585270     0.87800
C648        C  0.28186514  0.97893577  0.59748386     0.87800
C649        C  0.33956871  0.99031455  0.55165340     0.87800
C650        C  0.34369658  0.96173653  0.63111609     0.87900
O651        O  0.37339820  0.93180777  0.76128746    -0.74400
O652        O  0.28527647  0.84173040  0.75152200    -0.74400
O653        O  0.32764045  0.87430434  0.78548052    -0.74400
O654        O  0.32870937  0.90185064  0.72767465    -0.74500
O655        O  0.36154486  0.87795618  0.71779435    -0.74400
O656        O  0.35973866  0.84832027  0.77773336    -0.74400
O657        O  0.31845900  0.81783140  0.74242233    -0.74400
O658        O  0.40388060  0.90475162  0.75247378    -0.74400
Ni659      Ni  0.32754339  0.88824456  0.75672587     1.25400
Ni660      Ni  0.36184719  0.86108668  0.74721029     1.25400
C661        C  0.40342366  0.93266670  0.75839026     0.87800
C662        C  0.28779309  0.81430859  0.74600000     0.87800
C663        C  0.34361939  0.85766050  0.79145252     0.87800
C664        C  0.34643828  0.89664876  0.71327664     0.87900
O665        O  0.41016829  0.88345234  0.91560952    -0.74400
O666        O  0.31838837  0.79622586  0.92414840    -0.74400
O667        O  0.35522518  0.83855467  0.89066037    -0.74400
O668        O  0.37616064  0.83886636  0.94934203    -0.74500
O669        O  0.35338316  0.87348822  0.95723108    -0.74400
O670        O  0.32863017  0.87082955  0.89624979    -0.74400
O671        O  0.29466910  0.83034833  0.93168521    -0.74400
O672        O  0.38308498  0.91490185  0.92186088    -0.74400
Ni673      Ni  0.36574088  0.83798698  0.91983737     1.25400
Ni674      Ni  0.33875843  0.87333954  0.92713657     1.25400
C675        C  0.41112219  0.91379291  0.91705882     0.87800
C676        C  0.29096391  0.79952685  0.92842672     0.87800
C677        C  0.33971383  0.85497863  0.88349880     0.87800
C678        C  0.37112139  0.85780150  0.96289110     0.87900
O679        O  0.43704243  0.89231725  0.09410808    -0.74400
O680        O  0.43193240  0.80014522  0.08404862    -0.74400
O681        O  0.44762666  0.84468644  0.11779872    -0.74400
O682        O  0.41636720  0.84612297  0.06072609    -0.74500
O683        O  0.47251083  0.87452181  0.04876315    -0.74400
O684        O  0.50468477  0.87361659  0.10733889    -0.74400
O685        O  0.48825041  0.83047863  0.07279829    -0.74400
O686        O  0.49316586  0.91835336  0.08260427    -0.74400
Ni687      Ni  0.43106314  0.84459487  0.08949168     1.25400
Ni688      Ni  0.49149281  0.87502808  0.07741102     1.25400
C689        C  0.46712183  0.92094403  0.08989904     0.87800
C690        C  0.46065738  0.80072326  0.07753943     0.87800
C691        C  0.48075940  0.85951301  0.12227751     0.87800
C692        C  0.43875743  0.86141324  0.04542342     0.87900
O693        O  0.02847643  0.58775773  0.90974844    -0.74400
O694        O  0.11591511  0.67977001  0.91851937    -0.74400
O695        O  0.08305593  0.63634586  0.88458844    -0.74400
O696        O  0.05811587  0.63299244  0.94309748    -0.74500
O697        O  0.08552183  0.60272594  0.95209258    -0.74400
O698        O  0.11410303  0.60885923  0.89175099    -0.74400
O699        O  0.14328161  0.64940776  0.92735164    -0.74400
O700        O  0.06023048  0.56122347  0.91710513    -0.74400
Ni701      Ni  0.07047141  0.63539573  0.91371919     1.25400
Ni702      Ni  0.10199955  0.60475316  0.92241378     1.25400
C703        C  0.03053861  0.55901276  0.91231419     0.87800
C704        C  0.14455024  0.67927796  0.92414080     0.87800
C705        C  0.10169367  0.62289167  0.87816306     0.87800
C706        C  0.06549693  0.61593566  0.95721604     0.87900
O707        O  0.02767802  0.59247523  0.08674917    -0.74400
O708        O  0.02691265  0.68294831  0.07985809    -0.74400
O709        O  0.02586469  0.64141555  0.11314121    -0.74400
O710        O  0.03486643  0.63658818  0.05336911    -0.74500
O711        O  0.48015337  0.61056481  0.05150724    -0.74400
O712        O  0.46578034  0.61564828  0.11325084    -0.74400
O713        O  0.46725100  0.65402242  0.07766035    -0.74400
O714        O  0.47314165  0.57101282  0.08680182    -0.74400
Ni715      Ni  0.03102357  0.63961712  0.08333080     1.25400
Ni716      Ni  0.46954680  0.61189986  0.08205924     1.25400
C717        C  0.99681472  0.56345791  0.08686002     0.87800
C718        C  0.99632648  0.68104822  0.07674357     0.87800
C719        C  0.49384800  0.63234362  0.12518578     0.87800
C720        C  0.00806984  0.61732720  0.04155897     0.87900
C721        C  0.01877064  0.61658136  0.98058075    -0.05700
C722        C  0.04873916  0.61142974  0.97913111     0.00200
C723        C  0.06169779  0.60385376  0.99837657    -0.08400
C724        C  0.04516629  0.60312867  0.01809960    -0.05700
C725        C  0.01689379  0.61057445  0.01954157     0.00200
C726        C  0.00300519  0.61683557  0.00043373    -0.08300
C727        C  0.97305237  0.62557484  0.00112979     0.62100
H728        H  0.00810971  0.62150740  0.96591011     0.12800
H729        H  0.05534566  0.59813174  0.03297560     0.12800
C730        C  0.09372455  0.59821123  0.99847440     0.62300
F731        F  0.96412118  0.63204924  0.98075448    -0.22800
F732        F  0.98347133  0.65585206  0.01331629    -0.20200
F733        F  0.45022940  0.60842387  0.01203619    -0.19800
F734        F  0.12294506  0.62782170  0.98939734    -0.19900
F735        F  0.08591716  0.56797994  0.98690140    -0.20200
F736        F  0.10303618  0.59346521  0.01914512    -0.22900
C737        C  0.00822764  0.77568691  0.07270904    -0.05700
C738        C  0.46508017  0.76823266  0.07622254     0.00200
C739        C  0.44449486  0.73605278  0.08821488    -0.08400
C740        C  0.45560987  0.71023890  0.08870210    -0.05700
C741        C  0.48696354  0.71552210  0.07827516     0.00200
C742        C  0.01738252  0.74848157  0.07216805    -0.08300
C743        C  0.05542255  0.75810576  0.06667973     0.62100
H744        H  0.02918365  0.80293772  0.06963133     0.12800
H745        H  0.43981080  0.68544101  0.09759622     0.12800
C746        C  0.41147044  0.72894962  0.10083792     0.62300
F747        F  0.07634251  0.79385479  0.06081847    -0.22800
F748        F  0.05522757  0.73776445  0.04957351    -0.20200
F749        F  0.07110076  0.75172721  0.08440212    -0.19800
F750        F  0.38662820  0.72971915  0.08700122    -0.19900
F751        F  0.42072435  0.75466746  0.11646522    -0.20200
F752        F  0.39537460  0.69575523  0.11109725    -0.22900
C753        C  0.50682789  0.98611199  0.08369635    -0.05700
C754        C  0.47455369  0.95858296  0.09290195     0.00200
C755        C  0.45309646  0.96859075  0.10487804    -0.08400
C756        C  0.46305957  0.50621685  0.09749313    -0.05700
C757        C  0.49844498  0.53538105  0.09516543     0.00200
C758        C  0.00534188  0.51255721  0.10241859    -0.08300
C759        C  0.03218270  0.53655724  0.11898124     0.62100
H760        H  0.02684506  0.97933072  0.07698670     0.12800
H761        H  0.44124686  0.51166353  0.09874985     0.12800
C762        C  0.41962083  0.94120024  0.11672948     0.62300
F763        F  0.04139473  0.51741695  0.13319116    -0.22800
F764        F  0.01768067  0.55322629  0.13076590    -0.20200
F765        F  0.06293330  0.56223460  0.10873498    -0.19800
F766        F  0.42791697  0.92131312  0.13088195    -0.19900
F767        F  0.39442022  0.91866908  0.10209849    -0.20200
F768        F  0.40450559  0.95729596  0.12858219    -0.22900
C769        C  0.22723740  0.77348682  0.91799751    -0.05700
C770        C  0.25367136  0.76846855  0.92828992     0.00200
C771        C  0.24339731  0.73534674  0.93864335    -0.08400
C772        C  0.20718006  0.70814500  0.93785729    -0.05700
C773        C  0.18072225  0.71232703  0.92666985     0.00200
C774        C  0.19106943  0.74602778  0.91673402    -0.08300
C775        C  0.16467549  0.75304661  0.90438235     0.62100
H776        H  0.23547897  0.79924999  0.91038170     0.12800
H777        H  0.19948010  0.68273424  0.94575899     0.12800
C778        C  0.27037038  0.72891439  0.95077268     0.62300
F779        F  0.18070797  0.78741166  0.89569951    -0.22800
F780        F  0.13771348  0.74907579  0.91808267    -0.20200
F781        F  0.15018914  0.72926083  0.88757403    -0.19800
F782        F  0.28813166  0.75558505  0.96573804    -0.19900
F783        F  0.29485020  0.72900336  0.93644883    -0.20200
F784        F  0.25421305  0.69628723  0.96166651    -0.22900
C785        C  0.44003445  0.97714876  0.90477043    -0.05700
C786        C  0.44416671  0.94908672  0.91372462     0.00200
C787        C  0.47763757  0.95711507  0.92230872    -0.08400
C788        C  0.00198391  0.49513485  0.92314505    -0.05700
C789        C  0.99935718  0.52176725  0.91098914     0.00200
C790        C  0.47172282  0.51869516  0.93192390    -0.08300
C791        C  0.47314434  0.54334906  0.94954420     0.62100
H792        H  0.41424873  0.97052982  0.89811636     0.12800
H793        H  0.02502897  0.50308255  0.93339634     0.12800
C794        C  0.98453613  0.93483594  0.94497052     0.62300
F795        F  0.44428439  0.52654739  0.96349596    -0.22800
F796        F  0.47302129  0.57288671  0.94060278    -0.20200
F797        F  0.50393354  0.55427131  0.96135261    -0.19800
F798        F  0.98369772  0.90791916  0.93267868    -0.19900
F799        F  0.46016372  0.91135184  0.94901833    -0.20200
F800        F  0.01597810  0.95014202  0.95669892    -0.22900
C801        C  0.41622915  0.85288735  0.98556658    -0.05700
C802        C  0.38874021  0.86179454  0.98453364     0.00200
C803        C  0.37995664  0.87337256  0.00366240    -0.08400
C804        C  0.39757354  0.87361718  0.02308346    -0.05700
C805        C  0.42432098  0.86381938  0.02392718     0.00200
C806        C  0.43407164  0.85367443  0.00476125    -0.08300
C807        C  0.46224201  0.84232769  0.00466408     0.62100
H808        H  0.42400478  0.84507274  0.97098935     0.12800
H809        H  0.39052696  0.88150571  0.03793569     0.12800
C810        C  0.35216970  0.88513160  0.00375221     0.62300
F811        F  0.46543963  0.83031388  0.98468006    -0.22800
F812        F  0.45322953  0.81477928  0.01948338    -0.20200
F813        F  0.00629667  0.87118649  0.01029659    -0.19800
F814        F  0.31990702  0.85784717  0.99623492    -0.19900
F815        F  0.36356973  0.91523746  0.99071505    -0.20200
F816        F  0.34652665  0.89369846  0.02422827    -0.22900
C817        C  0.31011314  0.83458428  0.82540600    -0.05700
C818        C  0.34357072  0.85157785  0.81489032     0.00200
C819        C  0.37504708  0.87075118  0.82715693    -0.08400
C820        C  0.37190120  0.87329005  0.84946444    -0.05700
C821        C  0.33852193  0.85700715  0.85988679     0.00200
C822        C  0.30711248  0.83637604  0.84789950    -0.08300
C823        C  0.27100388  0.81582618  0.85893374     0.62100
H824        H  0.28627555  0.82052064  0.81574956     0.12800
H825        H  0.39574210  0.88774924  0.85915367     0.12800
C826        C  0.41166445  0.88984225  0.81665540     0.62300
F827        F  0.24365575  0.79760163  0.84431918    -0.22800
F828        F  0.26401324  0.83931491  0.86998503    -0.20200
F829        F  0.27117694  0.79106652  0.87331063    -0.19800
F830        F  0.41394365  0.91652356  0.80306483    -0.19900
F831        F  0.41694368  0.86572707  0.80501677    -0.20200
F832        F  0.43886169  0.90550147  0.83166437    -0.22900
C833        C  0.35724845  0.92171613  0.65302584    -0.05700
C834        C  0.34896444  0.94955735  0.65266829     0.00200
C835        C  0.34171791  0.96086292  0.67222759    -0.08400
C836        C  0.34279637  0.94365314  0.69146164    -0.05700
C837        C  0.34959878  0.91463636  0.69186115     0.00200
C838        C  0.35739617  0.90374182  0.67217349    -0.08300
C839        C  0.36447623  0.87262466  0.67104953     0.62100
H840        H  0.36267559  0.91333081  0.63780807     0.12800
H841        H  0.33738986  0.95252785  0.70649916     0.12800
C842        C  0.33092875  0.98942781  0.67268134     0.62300
F843        F  0.36865106  0.86494099  0.65002946    -0.22800
F844        F  0.33604608  0.84217461  0.68002607    -0.20200
F845        F  0.39550084  0.88091321  0.68210383    -0.19800
F846        F  0.30321224  0.46989248  0.65134355    -0.19900
F847        F  0.35913442  0.51452487  0.65833855    -0.20200
F848        F  0.31962852  0.48830303  0.68520080    -0.22900
C849        C  0.13961614  0.63614753  0.82100499    -0.05700
C850        C  0.10846820  0.62572312  0.80866023     0.00200
C851        C  0.07550953  0.61373524  0.81936122    -0.08400
C852        C  0.07489581  0.61245887  0.84202544    -0.05700
C853        C  0.10583564  0.62241421  0.85440922     0.00200
C854        C  0.13897590  0.63516374  0.84378335    -0.08300
C855        C  0.17348025  0.64888088  0.85636122     0.62100
H856        H  0.16455179  0.64475616  0.81255883     0.12800
H857        H  0.04989331  0.60353986  0.85037766     0.12800
C858        C  0.04089895  0.60114624  0.80699467     0.62300
F859        F  0.20290919  0.66147284  0.84287591    -0.22800
F860        F  0.17218485  0.62160694  0.86904980    -0.20200
F861        F  0.17816468  0.67671715  0.86936917    -0.19800
F862        F  0.03504219  0.57333871  0.79363112    -0.19900
F863        F  0.04301814  0.62922063  0.79474785    -0.20200
F864        F  0.01165773  0.58894961  0.82060582    -0.22900
C865        C  0.48135345  0.52608098  0.76117992    -0.05700
C866        C  0.01505251  0.51862613  0.75115152     0.00200
C867        C  0.99730676  0.98814287  0.76236653    -0.08400
C868        C  0.46783923  0.96023940  0.76743163    -0.05700
C869        C  0.43902717  0.96539387  0.76152079     0.00200
C870        C  0.44528411  0.49886903  0.76116043    -0.08300
C871        C  0.41634334  0.50889688  0.75821168     0.62100
H872        H  0.99673507  0.54555354  0.72936807     0.12800
H873        H  0.46203707  0.93338842  0.77168461     0.12800
C874        C  0.02680936  0.97862915  0.76176055     0.62300
F875        F  0.43036286  0.54558617  0.75636856    -0.22800
F876        F  0.39355105  0.49696028  0.77580423    -0.20200
F877        F  0.39725331  0.49366902  0.73960522    -0.19800
F878        F  0.04839933  0.99212740  0.77968923    -0.19900
F879        F  0.04700422  0.99273604  0.74321076    -0.20200
F880        F  0.01340369  0.94195911  0.76170455    -0.22900
C881        C  0.19715018  0.72851567  0.75473676    -0.05700
C882        C  0.20230698  0.70326238  0.74348613     0.00200
C883        C  0.23454038  0.71495988  0.73216433    -0.08400
C884        C  0.26077403  0.75165277  0.73266908    -0.05700
C885        C  0.25608067  0.77714758  0.74426454     0.00200
C886        C  0.22333837  0.76516337  0.75548560    -0.08300
C887        C  0.21589919  0.79031332  0.76856307     0.62100
H888        H  0.17193831  0.71903607  0.76307357     0.12800
H889        H  0.28559532  0.76060712  0.72401956     0.12800
C890        C  0.24078015  0.68889947  0.71932228     0.62300
F891        F  0.18283904  0.77254485  0.77864615    -0.22800
F892        F  0.21625194  0.81645421  0.75518158    -0.20200
F893        F  0.24153803  0.80616930  0.78439318    -0.19800
F894        F  0.21371625  0.67188506  0.70440573    -0.19900
F895        F  0.24114532  0.66356718  0.73310399    -0.20200
F896        F  0.27301826  0.70595297  0.70831925    -0.22900
C897        C  0.99582387  0.47828125  0.55965053    -0.05700
C898        C  0.01429460  0.48992480  0.57930174     0.00200
C899        C  0.50226976  0.02975628  0.58143276    -0.08400
C900        C  0.46625039  0.02151350  0.58139092    -0.05700
C901        C  0.43706348  0.98595017  0.58272276     0.00200
C902        C  0.45634649  0.45437154  0.57263620    -0.08300
C903        C  0.42974434  0.41977827  0.56184351     0.62100
H904        H  0.01010850  0.47674933  0.54581785     0.12800
H905        H  0.46073645  0.04340552  0.58093975     0.12800
C906        C  0.03294398  0.07172751  0.58565895     0.62300
F907        F  0.44641915  0.40311397  0.55227413    -0.22800
F908        F  0.41142370  0.42689629  0.54597546    -0.20200
F909        F  0.40579807  0.39625452  0.57696613    -0.19800
F910        F  0.05521195  0.08267080  0.56781807    -0.19900
F911        F  0.05253710  0.07493177  0.60402763    -0.20200
F912        F  0.51853028  0.09206621  0.58074918    -0.22900
C913        C  0.19284764  0.45149881  0.59771701    -0.05700
C914        C  0.19888967  0.48672029  0.59399181     0.00200
C915        C  0.22466462  0.02069871  0.61163637    -0.08400
C916        C  0.25209975  0.01185252  0.61117151    -0.05700
C917        C  0.24896184  0.98231893  0.59956633     0.00200
C918        C  0.22064541  0.44307140  0.59771740    -0.08300
C919        C  0.21237778  0.40526475  0.60327762     0.62100
H920        H  0.16577971  0.43002893  0.60055553     0.12800
H921        H  0.27676507  0.02866005  0.61965944     0.12800
C922        C  0.22933042  0.05241905  0.62450232     0.62300
F923        F  0.17723470  0.38368733  0.60981986    -0.22800
F924        F  0.23417001  0.40611506  0.61996687    -0.20200
F925        F  0.21807327  0.38989709  0.58543302    -0.19800
F926        F  0.20150805  0.04123267  0.63910459    -0.19900
F927        F  0.22944337  0.07802902  0.61076038    -0.20200
F928        F  0.26109991  0.06822326  0.63589171    -0.22900
C929        C  0.11398837  0.56796712  0.64668326    -0.05700
C930        C  0.10737538  0.53219771  0.64721832     0.00200
C931        C  0.09971885  0.51415050  0.66746782    -0.08400
C932        C  0.10099427  0.53312704  0.68621640    -0.05700
C933        C  0.10874561  0.56913471  0.68560160     0.00200
C934        C  0.11453967  0.58659215  0.66537559    -0.08300
C935        C  0.12220261  0.62496173  0.66352863     0.62100
H936        H  0.11875120  0.58164678  0.63124795     0.12800
H937        H  0.09594393  0.51978787  0.70180350     0.12800
C938        C  0.09075837  0.47538637  0.66952876     0.62300
F939        F  0.12970304  0.63790303  0.64252167    -0.22800
F940        F  0.15136204  0.64694137  0.67611132    -0.20200
F941        F  0.09270939  0.62673880  0.67039706    -0.19800
F942        F  0.11819613  0.47157902  0.66097820    -0.19900
F943        F  0.05933705  0.45363744  0.65866665    -0.20200
F944        F  0.08601781  0.46373679  0.69080407    -0.22900
C945        C  0.34910160  0.02372739  0.49310665    -0.05700
C946        C  0.34754600  0.99454166  0.48191560     0.00200
C947        C  0.34233465  0.96407753  0.49384958    -0.08400
C948        C  0.34013253  0.96459880  0.51641394    -0.05700
C949        C  0.34254848  0.99406445  0.52767115     0.00200
C950        C  0.34687909  0.02417222  0.51575749    -0.08300
C951        C  0.34883315  0.05641658  0.52667314     0.62100
H952        H  0.35262967  0.04681410  0.48391357     0.12800
H953        H  0.33705509  0.94165430  0.52555987     0.12800
C954        C  0.34998842  0.42211898  0.47685788     0.62300
F955        F  0.34983853  0.08129561  0.51188312    -0.22800
F956        F  0.37946214  0.07325626  0.53904323    -0.20200
F957        F  0.31910385  0.04551570  0.53966272    -0.19800
F958        F  0.37848754  0.44042641  0.46286486    -0.19900
F959        F  0.31034301  0.91603544  0.46976257    -0.20200
F960        F  0.33610412  0.90543534  0.49803645    -0.22900
C961        C  0.43192278  0.56478866  0.35618532    -0.05700
C962        C  0.39975246  0.53142783  0.35529734     0.00200
C963        C  0.38775097  0.51527832  0.33497414    -0.08400
C964        C  0.40710154  0.53423654  0.31635917    -0.05700
C965        C  0.43815728  0.56853391  0.31721398     0.00200
C966        C  0.45133558  0.58359749  0.33759615    -0.08300
C967        C  0.48492655  0.61981190  0.33977421     0.62100
H968        H  0.39034687  0.08368857  0.35886924     0.12800
H969        H  0.39767057  0.52237954  0.30070801     0.12800
C970        C  0.35440275  0.47880146  0.33275159     0.62300
F971        F  0.40477242  0.13509170  0.33781287    -0.22800
F972        F  0.48115001  0.64550234  0.32829381    -0.20200
F973        F  0.45445085  0.15064765  0.31870025    -0.19800
F974        F  0.32545485  0.47917196  0.34194583    -0.19900
F975        F  0.35961973  0.45300031  0.34293819    -0.20200
F976        F  0.34624143  0.46918969  0.31139433    -0.22900
C977        C  0.51973703  0.62965985  0.16042813    -0.05700
C978        C  0.49258340  0.63235276  0.14916512     0.00200
C979        C  0.46808342  0.63819577  0.16089383    -0.08400
C980        C  0.47125905  0.64056763  0.18347136    -0.05700
C981        C  0.49731252  0.63623633  0.19483659     0.00200
C982        C  0.52234513  0.63110024  0.18310897    -0.08300
C983        C  0.55067240  0.62576718  0.19440797     0.62100
H984        H  0.53862824  0.62557671  0.15124207     0.12800
H985        H  0.45217987  0.64437083  0.19264455     0.12800
C986        C  0.43904126  0.64236060  0.14971262     0.62300
F987        F  0.57205852  0.62078128  0.17992109    -0.22800
F988        F  0.53454641  0.59591688  0.20785150    -0.20200
F989        F  0.57248757  0.65564389  0.20644532    -0.19800
F990        F  0.92935856  0.63558142  0.13506660    -0.19900
F991        F  0.45434898  0.66999405  0.13470305    -0.20200
F992        F  0.41951244  0.65017907  0.16406397    -0.22900
C993        C  0.12743481  0.97337284  0.49725204    -0.05700
C994        C  0.11368725  0.99077537  0.48424109     0.00200
C995        C  0.09715948  0.00814385  0.49429140    -0.08400
C996        C  0.08255209  0.48194191  0.51417703    -0.05700
C997        C  0.10842048  0.98988944  0.52986347     0.00200
C998        C  0.12547334  0.97303828  0.51998107    -0.08300
C999        C  0.14287712  0.95640852  0.53343100     0.62100
H1000       H  0.13950324  0.95969287  0.48938603     0.12800
H1001       H  0.06526337  0.48794960  0.52366449     0.12800
C1002       C  0.07864717  0.02415818  0.48129109     0.62300
F1003       F  0.15826794  0.94146957  0.52079955    -0.22800
F1004       F  0.13214613  0.42228415  0.53622303    -0.20200
F1005       F  0.16940286  0.98263112  0.54588506    -0.19800
F1006       F  0.03550986  0.47000637  0.46780065    -0.19900
F1007       F  0.10254384  0.05034668  0.46727900    -0.20200
F1008       F  0.06407345  0.03958013  0.49421035    -0.22900
C1009       C  0.21284254  0.49800778  0.39574505    -0.05700
C1010       C  0.19599957  0.97826266  0.41486069     0.00200
C1011       C  0.20723956  0.95466039  0.42332819    -0.08400
C1012       C  0.24393323  0.96533053  0.42247071    -0.05700
C1013       C  0.25946031  0.48607400  0.40796703     0.00200
C1014       C  0.24912077  0.50713016  0.39562618    -0.08300
C1015       C  0.27622843  0.53890571  0.38233753     0.62100
H1016       H  0.20485125  0.51422777  0.38636578     0.12800
H1017       H  0.25274651  0.94761296  0.42904691     0.12800
C1018       C  0.18125608  0.91866579  0.43357845     0.62300
F1019       F  0.26025441  0.55421326  0.37013972    -0.22800
F1020       F  0.29388917  0.52807968  0.36844931    -0.20200
F1021       F  0.30078005  0.56480596  0.39587071    -0.19800
F1022       F  0.15580266  0.89742570  0.41865786    -0.19900
F1023       F  0.16479052  0.92371529  0.45117501    -0.20200
F1024       F  0.19819423  0.90030882  0.44070760    -0.22900
C1025       C  0.45752588  0.97937254  0.43692686    -0.05700
C1026       C  0.44709176  0.49163778  0.42716401     0.00200
C1027       C  0.48195839  0.52057357  0.43097734    -0.08400
C1028       C  0.01121006  0.51308107  0.42444875    -0.05700
C1029       C  0.00559414  0.97024958  0.42897237     0.00200
C1030       C  0.48400577  0.96942941  0.43565863    -0.08300
C1031       C  0.47767245  0.93503679  0.44669320     0.62100
H1032       H  0.43257095  0.96173321  0.44513676     0.12800
H1033       H  0.03854962  0.53468770  0.42565487     0.12800
C1034       C  0.99295526  0.56056179  0.42490944     0.62300
F1035       F  0.44620147  0.91887252  0.45849886    -0.22800
F1036       F  0.50543495  0.94233093  0.46072635    -0.20200
F1037       F  0.47537105  0.91094653  0.43139260    -0.19800
F1038       F  0.97470296  0.56423854  0.44205062    -0.19900
F1039       F  0.48078325  0.57075859  0.41541193    -0.20200
F1040       F  0.02911204  0.58332105  0.42833761    -0.22900
C1041       C  0.46321789  0.75287106  0.25197424    -0.05700
C1042       C  0.49503945  0.78036317  0.26103330     0.00200
C1043       C  0.01780464  0.76886564  0.24934287    -0.08400
C1044       C  0.00968014  0.73294787  0.24862481    -0.05700
C1045       C  0.47698358  0.70661017  0.26350072     0.00200
C1046       C  0.45352772  0.71625945  0.25311002    -0.08300
C1047       C  0.41845121  0.68849663  0.24321041     0.62100
H1048       H  0.44576018  0.76048527  0.24378626     0.12800
H1049       H  0.02609554  0.72590749  0.23899667     0.12800
C1050       C  0.04889731  0.79689961  0.23598908     0.62300
F1051       F  0.39907753  0.70366869  0.23499206    -0.22800
F1052       F  0.39757245  0.66349532  0.25877942    -0.20200
F1053       F  0.42499279  0.67161512  0.22650793    -0.19800
F1054       F  0.07437935  0.82219280  0.24941924    -0.19900
F1055       F  0.03685653  0.81336248  0.22160781    -0.20200
F1056       F  0.06533139  0.78208896  0.22417581    -0.22900
C1057       C  0.97708098  0.46809099  0.22939732    -0.05700
C1058       C  0.50149249  0.97063641  0.24728014     0.00200
C1059       C  0.51356890  0.99598976  0.26398265    -0.08400
C1060       C  0.50252590  0.02164316  0.26423729    -0.05700
C1061       C  0.48754301  0.52529963  0.24920666     0.00200
C1062       C  0.96934700  0.49623642  0.23012207    -0.08300
C1063       C  0.93678677  0.49249938  0.21832340     0.62100
H1064       H  0.95859814  0.44335857  0.22151354     0.12800
H1065       H  0.51138794  0.04076702  0.27720177     0.12800
C1066       C  0.53581422  0.99432110  0.28242670     0.62300
F1067       F  0.92090157  0.46218845  0.20572612    -0.22800
F1068       F  0.94672935  0.52190714  0.20486339    -0.20200
F1069       F  0.91161651  0.48991949  0.23303689    -0.19800
F1070       F  0.56609195  0.99520397  0.27445495    -0.19900
F1071       F  0.51558503  0.96297185  0.29403069    -0.20200
F1072       F  0.54665256  0.02271196  0.29636385    -0.22900
C1073       C  0.06290109  0.93512760  0.32111075    -0.05700
C1074       C  0.02959728  0.90293888  0.32004862     0.00200
C1075       C  0.01260667  0.88563882  0.33963106    -0.08400
C1076       C  0.02949415  0.90132943  0.35932964    -0.05700
C1077       C  0.06265334  0.93366574  0.36027858     0.00200
C1078       C  0.07983014  0.95062158  0.34072599    -0.08300
C1079       C  0.11640922  0.98424130  0.34038444     0.62100
H1080       H  0.07596225  0.94844874  0.30620801     0.12800
H1081       H  0.01669315  0.88822729  0.37432613     0.12800
C1082       C  0.48198383  0.86197210  0.33586137     0.62300
F1083       F  0.13050346  0.99327571  0.31975222    -0.22800
F1084       F  0.14001756  0.97896798  0.35295156    -0.20200
F1085       F  0.11375755  0.01269416  0.34823985    -0.19800
F1086       F  0.48604697  0.83620854  0.32521904    -0.19900
F1087       F  0.45543311  0.86608800  0.32600930    -0.20200
F1088       F  0.47102245  0.84974450  0.35673976    -0.22900
C1089       C  0.00092638  0.88941086  0.18276604    -0.05700
C1090       C  0.48843079  0.86229295  0.19099125     0.00200
C1091       C  0.47475777  0.82922965  0.18035984    -0.08400
C1092       C  0.47435934  0.82922609  0.15760112    -0.05700
C1093       C  0.48988997  0.86137661  0.14542326     0.00200
C1094       C  0.00352570  0.89007692  0.16016539    -0.08300
C1095       C  0.02642686  0.92550638  0.14842117     0.62100
H1096       H  0.01629364  0.91405214  0.19155591     0.12800
H1097       H  0.46172387  0.80407109  0.14910091     0.12800
C1098       C  0.46248599  0.79466024  0.19302505     0.62300
F1099       F  0.04260430  0.95390744  0.16247569    -0.22800
F1100       F  0.00546205  0.93232970  0.13443645    -0.20200
F1101       F  0.05307442  0.92409469  0.13696640    -0.19800
F1102       F  0.43419181  0.78819042  0.20628596    -0.19900
F1103       F  0.49045023  0.79753684  0.20550173    -0.20200
F1104       F  0.45157870  0.76560824  0.17962946    -0.22900
O1105       O  0.53561439  0.43465534  0.24965400    -0.74400
O1106       O  0.52541656  0.34024815  0.25981958    -0.74400
O1107       O  0.52454186  0.37875323  0.22528981    -0.74400
O1108       O  0.54174333  0.39902471  0.28418779    -0.74500
O1109       O  0.98401337  0.37845954  0.28551853    -0.74400
O1110       O  0.96286511  0.35190614  0.22524777    -0.74400
O1111       O  0.96589418  0.31797001  0.26174146    -0.74400
O1112       O  0.97639149  0.40898650  0.24907655    -0.74400
Ni1113     Ni  0.53389433  0.38880948  0.25464649     1.25400
Ni1114     Ni  0.97022591  0.36338608  0.25573587     1.25400
C1115       C  0.50687323  0.43689105  0.25026488     0.87800
C1116       C  0.49386062  0.31383778  0.26411418     0.87800
C1117       C  0.98927871  0.36001811  0.21238791     0.87800
C1118       C  0.51728849  0.39533887  0.29709873     0.87900
O1119       O  0.53869487  0.44606842  0.42878878    -0.74400
O1120       O  0.62642484  0.44462747  0.41720102    -0.74400
O1121       O  0.59466226  0.45330322  0.45240718    -0.74400
O1122       O  0.56766850  0.43332479  0.39399318    -0.74500
O1123       O  0.59565252  0.49150598  0.38546433    -0.74400
O1124       O  0.62167133  0.51201835  0.44576050    -0.74400
O1125       O  0.65308385  0.50307259  0.41019680    -0.74400
O1126       O  0.56714294  0.50414439  0.42053802    -0.74400
Ni1127     Ni  0.58100845  0.44226179  0.42332220     1.25400
Ni1128     Ni  0.61056226  0.50477593  0.41519023     1.25400
C1129       C  0.53862179  0.47578419  0.42627370     0.87800
C1130       C  0.65472096  0.47438036  0.41213133     0.87800
C1131       C  0.61111813  0.48538583  0.45908078     0.87800
C1132       C  0.57592174  0.45843644  0.38018907     0.87900
O1133       O  0.93331323  0.04531055  0.24998422    -0.74400
O1134       O  0.93041999  0.13430125  0.25718657    -0.74400
O1135       O  0.93975154  0.09981120  0.22386955    -0.74400
O1136       O  0.91840735  0.07636738  0.28278624    -0.74500
O1137       O  0.97592819  0.10262897  0.29134093    -0.74400
O1138       O  0.99823432  0.12987699  0.23061441    -0.74400
O1139       O  0.98777489  0.16045613  0.26583131    -0.74400
O1140       O  0.99135685  0.07652575  0.25682521    -0.74400
Ni1141     Ni  0.92832731  0.08802270  0.25323644     1.25400
Ni1142     Ni  0.99030739  0.11863376  0.26147336     1.25400
C1143       C  0.96381814  0.04683252  0.25253243     0.90200
C1144       C  0.95995619  0.16277814  0.26220858     0.87800
C1145       C  0.97183987  0.11775609  0.21724503     0.87800
C1146       C  0.94268916  0.08273719  0.29661214     0.87900
O1147       O  0.91871208  0.02184900  0.42764259    -0.74400
O1148       O  0.83179287  0.02670648  0.41808316    -0.74400
O1149       O  0.86368393  0.01514103  0.45197420    -0.74400
O1150       O  0.88985698  0.03860670  0.39373639    -0.74500
O1151       O  0.86174829  0.98118962  0.38463278    -0.74400
O1152       O  0.83320010  0.45907144  0.43419053    -0.74400
O1153       O  0.80257716  0.47128589  0.39928204    -0.74400
O1154       O  0.88871131  0.47087008  0.40920710    -0.74400
Ni1155     Ni  0.87702676  0.02766984  0.42303498     1.25400
Ni1156     Ni  0.84548358  0.47009856  0.40384605     1.25400
C1157       C  0.91715328  0.99136485  0.42530423     0.87800
C1158       C  0.80310748  0.99729624  0.41332762     0.87800
C1159       C  0.84473857  0.98284900  0.45836692     0.87800
C1160       C  0.88189393  0.01466866  0.37961485     0.87900
O1161       O  0.57581774  0.03543946  0.58257777    -0.74400
O1162       O  0.66527218  0.03445164  0.59107692    -0.74400
O1163       O  0.62298072  0.02857012  0.55723272    -0.74400
O1164       O  0.62028828  0.04648615  0.61613885    -0.74500
O1165       O  0.58847490  0.98828739  0.62418202    -0.74400
O1166       O  0.59987384  0.46365537  0.56561892    -0.74400
O1167       O  0.64225920  0.47241798  0.60015801    -0.74400
O1168       O  0.55546600  0.47234600  0.59186722    -0.74400
Ni1169     Ni  0.62231157  0.03833593  0.58659581     1.25400
Ni1170     Ni  0.59819341  0.47159369  0.59646586     1.25400
C1171       C  0.54618032  0.00541766  0.58462826     0.87800
C1172       C  0.66292568  0.00391225  0.59540954     0.87800
C1173       C  0.60807743  0.99695427  0.54990373     0.87800
C1174       C  0.60270746  0.02141056  0.62975912     0.87900
O1175       O  0.57707474  0.05363368  0.76023477    -0.74400
O1176       O  0.66785239  0.14086508  0.74907353    -0.74400
O1177       O  0.62438921  0.11046108  0.78340321    -0.74400
O1178       O  0.62211622  0.08103838  0.72615854    -0.74500
O1179       O  0.59202748  0.10780787  0.71540808    -0.74400
O1180       O  0.59547613  0.13938402  0.77431563    -0.74400
O1181       O  0.63741394  0.16747608  0.73874663    -0.74400
O1182       O  0.54959913  0.08340129  0.75037615    -0.74400
Ni1183     Ni  0.62404934  0.09561539  0.75498307     1.25400
Ni1184     Ni  0.59281178  0.12568827  0.74426099     1.25400
C1185       C  0.54798243  0.05458781  0.75714383     0.87800
C1186       C  0.66722955  0.16925480  0.74282258     0.87800
C1187       C  0.60983160  0.12865872  0.78870359     0.87800
C1188       C  0.60526811  0.08743407  0.71145677     0.87900
O1189       O  0.87564124  0.43627675  0.57399077    -0.74400
O1190       O  0.78676468  0.43844593  0.58172769    -0.74400
O1191       O  0.82939651  0.44471468  0.54807957    -0.74400
O1192       O  0.83107370  0.42539252  0.60716555    -0.74500
O1193       O  0.86398733  0.48342775  0.61426819    -0.74400
O1194       O  0.85991279  0.50366740  0.55328202    -0.74400
O1195       O  0.81978695  0.49664822  0.58849377    -0.74400
O1196       O  0.90545237  0.49519736  0.57952244    -0.74400
Ni1197     Ni  0.82946492  0.43411475  0.57751675     1.25400
Ni1198     Ni  0.86322255  0.49682075  0.58413664     1.25400
C1199       C  0.90530749  0.46613871  0.57599643     0.87800
C1200       C  0.78923669  0.46883120  0.58612904     0.87800
C1201       C  0.84436054  0.47661453  0.54066844     0.87800
C1202       C  0.84909664  0.45028867  0.62041202     0.87900
O1203       O  0.87627530  0.43339127  0.75235045    -0.74400
O1204       O  0.78597739  0.34397852  0.74523934    -0.74400
O1205       O  0.82896998  0.37969533  0.77857272    -0.74400
O1206       O  0.83105505  0.40052552  0.71926468    -0.74500
O1207       O  0.86257077  0.37388352  0.71198761    -0.74400
O1208       O  0.85818359  0.35008385  0.77321539    -0.74400
O1209       O  0.81775995  0.31745583  0.73824380    -0.74400
O1210       O  0.90483597  0.40314666  0.74670686    -0.74400
Ni1211     Ni  0.82942059  0.39036432  0.74901421     1.25400
Ni1212     Ni  0.86177192  0.36000788  0.74224703     1.25400
C1213       C  0.90557961  0.43237420  0.75064517     0.87800
C1214       C  0.78770204  0.31556206  0.74117640     0.87800
C1215       C  0.84302357  0.36192392  0.78599307     0.87800
C1216       C  0.84807639  0.39250426  0.70586706     0.87900
O1217       O  0.91037960  0.38316584  0.91181059    -0.74400
O1218       O  0.81843306  0.29633092  0.92059111    -0.74400
O1219       O  0.85505304  0.33865274  0.88678993    -0.74400
O1220       O  0.87606494  0.33839995  0.94540528    -0.74500
O1221       O  0.85296275  0.37278486  0.95346151    -0.74400
O1222       O  0.82957081  0.37181740  0.89231878    -0.74400
O1223       O  0.79494902  0.33082563  0.92772796    -0.74400
O1224       O  0.88369677  0.41500384  0.91830880    -0.74400
Ni1225     Ni  0.86572852  0.33786717  0.91597916     1.25400
Ni1226     Ni  0.83913613  0.37358799  0.92330191     1.25400
C1227       C  0.91152272  0.41357100  0.91345581     0.87800
C1228       C  0.79127774  0.29986891  0.92520317     0.87800
C1229       C  0.84044198  0.35591569  0.87944414     0.87800
C1230       C  0.87021187  0.35657056  0.95907884     0.87900
O1231       O  0.93023924  0.38639620  0.08923358    -0.74400
O1232       O  0.92640309  0.29438913  0.08209889    -0.74400
O1233       O  0.94041466  0.34037159  0.11442345    -0.74400
O1234       O  0.91119794  0.33864933  0.05685459    -0.74500
O1235       O  0.96777155  0.36977966  0.04586334    -0.74400
O1236       O  0.99757151  0.36678562  0.10481056    -0.74400
O1237       O  0.98221287  0.32480651  0.06997989    -0.74400
O1238       O  0.98792829  0.41352820  0.08020749    -0.74400
Ni1239     Ni  0.92492044  0.33882054  0.08591225     1.25400
Ni1240     Ni  0.98581563  0.36961876  0.07474222     1.25400
C1241       C  0.96067699  0.41517909  0.08613444     0.87800
C1242       C  0.95526908  0.29515531  0.07579501     0.87800
C1243       C  0.97311433  0.35312736  0.11947664     0.87800
C1244       C  0.93399538  0.35514203  0.04193638     0.87900
O1245       O  0.52967677  0.08740842  0.91540352    -0.74400
O1246       O  0.61654964  0.17936051  0.92322974    -0.74400
O1247       O  0.58158888  0.13731306  0.88945937    -0.74400
O1248       O  0.56195206  0.13122561  0.94894832    -0.74500
O1249       O  0.59208030  0.10240877  0.95527023    -0.74400
O1250       O  0.61331082  0.10987394  0.89388705    -0.74400
O1251       O  0.64589316  0.14982742  0.92892311    -0.74400
O1252       O  0.56217092  0.06105413  0.92041435    -0.74400
Ni1253     Ni  0.57138959  0.13489466  0.91910380     1.25400
Ni1254     Ni  0.60451749  0.10486019  0.92485538     1.25400
C1255       C  0.53205616  0.05875166  0.91671364     0.87800
C1256       C  0.64598817  0.17934851  0.92694224     0.87800
C1257       C  0.60022837  0.12483032  0.88157327     0.87800
C1258       C  0.57267481  0.11542438  0.96187350     0.87900
O1259       O  0.52821804  0.09741720  0.09360830    -0.74400
O1260       O  0.52894522  0.18678365  0.08245882    -0.74400
O1261       O  0.52016300  0.14521307  0.11683037    -0.74400
O1262       O  0.54169517  0.14082176  0.05892679    -0.74500
O1263       O  0.97901452  0.10275509  0.05111913    -0.74400
O1264       O  0.95028790  0.10474559  0.11067958    -0.74400
O1265       O  0.95961382  0.14527632  0.07447697    -0.74400
O1266       O  0.96498577  0.06190516  0.08692634    -0.74400
Ni1267     Ni  0.53180747  0.14373244  0.08808961     1.25400
Ni1268     Ni  0.96140034  0.10271474  0.08033693     1.25400
C1269       C  0.49820309  0.06789387  0.09199860     0.87800
C1270       C  0.49913987  0.18527280  0.07770200     0.87800
C1271       C  0.97562029  0.12047738  0.12457990     0.87800
C1272       C  0.51747050  0.12294279  0.04519432     0.87900
C1273       C  0.52519850  0.08877841  0.98945627    -0.05700
C1274       C  0.56125082  0.11280927  0.98450695     0.00200
C1275       C  0.58253493  0.13951881  0.99931752    -0.08400
C1276       C  0.56675818  0.14191922  0.01852081    -0.05700
C1277       C  0.53020511  0.11857803  0.02352790     0.00200
C1278       C  0.50923933  0.09081496  0.00884579    -0.08300
C1279       C  0.47040264  0.06342519  0.01336817     0.62100
H1280       H  0.50922856  0.06914196  0.97749806     0.12800
H1281       H  0.58311836  0.16305067  0.02957281     0.12800
C1282       C  0.62131721  0.16662256  0.99421005     0.62300
F1283       F  0.45588422  0.03794447  0.99740530    -0.22800
F1284       F  0.45044816  0.08041337  0.01441285    -0.20200
F1285       F  0.98185022  0.04066283  0.04151813    -0.19800
F1286       F  0.62282742  0.18856632  0.97726432    -0.19900
F1287       F  0.63941879  0.14900863  0.98850143    -0.20200
F1288       F  0.63869850  0.18797592  0.01168581    -0.22900
C1289       C  0.51466441  0.28131418  0.07959401    -0.05700
C1290       C  0.96076861  0.26322680  0.07636121     0.00200
C1291       C  0.93330268  0.22689136  0.07593253    -0.08400
C1292       C  0.94291168  0.19985612  0.07632511    -0.05700
C1293       C  0.97890750  0.20751585  0.07741761     0.00200
C1294       C  0.52295274  0.25355825  0.07866904    -0.08300
C1295       C  0.56195340  0.26306527  0.07936342     0.62100
H1296       H  0.53644654  0.30856307  0.08096090     0.12800
H1297       H  0.92184077  0.17210521  0.07618359     0.12800
C1298       C  0.89414608  0.21648112  0.07498293     0.62300
F1299       F  0.58508307  0.29974356  0.07887769    -0.22800
F1300       F  0.56974532  0.24885547  0.06172711    -0.20200
F1301       F  0.56849892  0.24970271  0.09818021    -0.19800
F1302       F  0.88835272  0.23316503  0.05746707    -0.19900
F1303       F  0.88464498  0.22666393  0.09372861    -0.20200
F1304       F  0.87198487  0.17987024  0.07289378    -0.22900
C1305       C  0.99309024  0.47532470  0.10254870    -0.05700
C1306       C  0.96607847  0.45171937  0.08843160     0.00200
C1307       C  0.95131333  0.46564505  0.07345935    -0.08400
C1308       C  0.96121591  0.00097851  0.10564873    -0.05700
C1309       C  0.99271380  0.02905959  0.09634008     0.00200
C1310       C  0.51747392  0.02253357  0.08487016    -0.08300
C1311       C  0.55200055  0.05026574  0.07398844     0.62100
H1312       H  0.54024555  0.48619588  0.09536153     0.12800
H1313       H  0.94272912  0.00765997  0.11314082     0.12800
C1314       C  0.92296109  0.44173800  0.05752372     0.62300
F1315       F  0.57004576  0.03490903  0.06454983    -0.22800
F1316       F  0.57450351  0.07437033  0.08908941    -0.20200
F1317       F  0.54459562  0.06833078  0.05802341    -0.19800
F1318       F  0.89383002  0.41488153  0.06845254    -0.19900
F1319       F  0.93715242  0.42682503  0.04402814    -0.20200
F1320       F  0.91102534  0.46044718  0.04492326    -0.22900
C1321       C  0.72702843  0.27238000  0.91639620    -0.05700
C1322       C  0.75429118  0.26878979  0.92666029     0.00200
C1323       C  0.74503067  0.23752975  0.93897270    -0.08400
C1324       C  0.70889036  0.21019772  0.93970657    -0.05700
C1325       C  0.68168168  0.21277550  0.92841235     0.00200
C1326       C  0.69089785  0.24489734  0.91684796    -0.08300
C1327       C  0.66330676  0.25001165  0.90444834     0.62100
H1328       H  0.73450991  0.29697669  0.90754471     0.12800
H1329       H  0.70173269  0.18593654  0.94886014     0.12800
C1330       C  0.77293433  0.23338782  0.95168571     0.62300
F1331       F  0.67839046  0.28303392  0.89402832    -0.22800
F1332       F  0.63755489  0.24796144  0.91850322    -0.20200
F1333       F  0.64740831  0.22383142  0.88900004    -0.19800
F1334       F  0.79083589  0.26208099  0.96535459    -0.19900
F1335       F  0.79714754  0.23215464  0.93772915    -0.20200
F1336       F  0.75776089  0.20226010  0.96409165    -0.22900
C1337       C  0.94216925  0.47474293  0.89767861    -0.05700
C1338       C  0.94463406  0.44858737  0.91033693     0.00200
C1339       C  0.97518070  0.45891819  0.92318111    -0.08400
C1340       C  0.50518510  0.99311062  0.92254027    -0.05700
C1341       C  0.50065435  0.02164298  0.91470308     0.00200
C1342       C  0.97688691  0.01508743  0.90508306    -0.08300
C1343       C  0.97460844  0.04223762  0.89034176     0.62100
H1344       H  0.91813611  0.46638553  0.88826814     0.12800
H1345       H  0.53049303  0.99919327  0.92964078     0.12800
C1346       C  0.46538719  0.44537291  0.88219204     0.62300
F1347       F  0.94507307  0.02634384  0.87696957    -0.22800
F1348       F  0.00481760  0.05891685  0.87749459    -0.20200
F1349       F  0.97211093  0.06758068  0.90245784    -0.19800
F1350       F  0.43119632  0.42950149  0.87375850    -0.19900
F1351       F  0.95029978  0.41875437  0.95269017    -0.20200
F1352       F  0.48929838  0.46374312  0.86564535    -0.22900
C1353       C  0.91748778  0.35581149  0.98145675    -0.05700
C1354       C  0.88652809  0.35923960  0.98084687     0.00200
C1355       C  0.87218876  0.36262527  0.00052269    -0.08400
C1356       C  0.88874927  0.36127800  0.01997068    -0.05700
C1357       C  0.91976377  0.35792717  0.02042702     0.00200
C1358       C  0.93452861  0.35542268  0.00074196    -0.08300
C1359       C  0.96729859  0.35101101  0.99996562     0.62100
H1360       H  0.92864565  0.35345311  0.96640607     0.12800
H1361       H  0.87757369  0.36309720  0.03516044     0.12800
C1362       C  0.83929301  0.36675160  0.00111035     0.62300
F1363       F  0.97479569  0.34511905  0.97924848    -0.22800
F1364       F  0.96178707  0.32202700  0.01269033    -0.20200
F1365       F  0.50659726  0.37352044  0.01151093    -0.19800
F1366       F  0.81129340  0.33848371  0.99061008    -0.19900
F1367       F  0.84675825  0.39865255  0.99109774    -0.20200
F1368       F  0.82842314  0.36721115  0.02200265    -0.22900
C1369       C  0.81188050  0.35461744  0.82084677    -0.05700
C1370       C  0.84151609  0.35670239  0.80983030     0.00200
C1371       C  0.87053700  0.35940611  0.82196532    -0.08400
C1372       C  0.86883682  0.35997366  0.84451902    -0.05700
C1373       C  0.83947969  0.35821074  0.85553964     0.00200
C1374       C  0.81043395  0.35558130  0.84353677    -0.08300
C1375       C  0.77813257  0.35347192  0.85453271     0.62100
H1376       H  0.78990988  0.35292916  0.81141902     0.12800
H1377       H  0.89112882  0.36231379  0.85389432     0.12800
C1378       C  0.90407744  0.36377160  0.81133338     0.62300
F1379       F  0.75186812  0.34878717  0.83990247    -0.22800
F1380       F  0.78831406  0.38487236  0.86545401    -0.20200
F1381       F  0.76353834  0.32487020  0.86893998    -0.19800
F1382       F  0.91847938  0.39376753  0.79811318    -0.19900
F1383       F  0.89592449  0.33386556  0.79932971    -0.20200
F1384       F  0.92990900  0.36812486  0.82621810    -0.22900
C1385       C  0.85071638  0.40474206  0.64458186    -0.05700
C1386       C  0.85283959  0.43855392  0.64256726     0.00200
C1387       C  0.85558872  0.45769193  0.66143034    -0.08400
C1388       C  0.85402786  0.44137046  0.68154078    -0.05700
C1389       C  0.85162912  0.40747591  0.68358110     0.00200
C1390       C  0.84988611  0.38876161  0.66472311    -0.08300
C1391       C  0.84517826  0.35140048  0.66574439     0.62100
H1392       H  0.84925071  0.39046890  0.63008683     0.12800
H1393       H  0.85436878  0.45512043  0.69602852     0.12800
C1394       C  0.85924991  0.49463153  0.66053156     0.62300
F1395       F  0.83941966  0.33620311  0.64556150    -0.22800
F1396       F  0.81601186  0.32926329  0.67854468    -0.20200
F1397       F  0.87554980  0.35293670  0.67427564    -0.19800
F1398       F  0.77111648  0.93856788  0.64564856    -0.19900
F1399       F  0.80592752  0.99285608  0.66017500    -0.20200
F1400       F  0.76606259  0.94720408  0.68070354    -0.22900
C1401       C  0.63820544  0.13834390  0.82449822    -0.05700
C1402       C  0.60906575  0.13477545  0.81215308     0.00200
C1403       C  0.57793721  0.12951693  0.82287776    -0.08400
C1404       C  0.57649271  0.12610131  0.84548013    -0.05700
C1405       C  0.60485720  0.12769526  0.85775108     0.00200
C1406       C  0.63667245  0.13474726  0.84712928    -0.08300
C1407       C  0.66878687  0.13839425  0.85943979     0.62100
H1408       H  0.66191296  0.14243843  0.81608330     0.12800
H1409       H  0.55246428  0.12127158  0.85380822     0.12800
C1410       C  0.54585977  0.12619315  0.81065298     0.62300
F1411       F  0.69813430  0.14902620  0.84612018    -0.22800
F1412       F  0.66046246  0.10575437  0.86873854    -0.20200
F1413       F  0.67837304  0.16375970  0.87534139    -0.19800
F1414       F  0.53290641  0.09755420  0.79678745    -0.19900
F1415       F  0.55585471  0.15741428  0.79899891    -0.20200
F1416       F  0.51826234  0.12064109  0.82434988    -0.22900
C1417       C  0.97522413  0.03025993  0.76100477    -0.05700
C1418       C  0.51115087  0.02297965  0.76057539     0.00200
C1419       C  0.50217915  0.48315905  0.76468351    -0.08400
C1420       C  0.96793046  0.46077970  0.76407639    -0.05700
C1421       C  0.94168739  0.46453205  0.75254266     0.00200
C1422       C  0.93934209  0.00235388  0.76019767    -0.08300
C1423       C  0.90971151  0.01134913  0.75724039     0.62100
H1424       H  0.48710368  0.05495027  0.75176268     0.12800
H1425       H  0.95973289  0.43593082  0.77281590     0.12800
C1426       C  0.53129122  0.47318837  0.76605030     0.62300
F1427       F  0.92293867  0.04788839  0.75513544    -0.22800
F1428       F  0.88712553  0.99919663  0.77491740    -0.20200
F1429       F  0.89053555  0.99540549  0.73877463    -0.19800
F1430       F  0.55323283  0.48995695  0.78344025    -0.19900
F1431       F  0.55126538  0.48357326  0.74724728    -0.20200
F1432       F  0.51739739  0.43663483  0.76877233    -0.22900
C1433       C  0.69749988  0.23256796  0.72911907    -0.05700
C1434       C  0.70019565  0.20566888  0.74104125     0.00200
C1435       C  0.73225791  0.21570152  0.75259764    -0.08400
C1436       C  0.75921267  0.25208821  0.75253864    -0.05700
C1437       C  0.75586368  0.27885493  0.74123030     0.00200
C1438       C  0.72486328  0.26889167  0.72887561    -0.08300
C1439       C  0.72125272  0.29621216  0.71499714     0.62100
H1440       H  0.67340260  0.22500840  0.71998481     0.12800
H1441       H  0.78357310  0.26014610  0.76152423     0.12800
C1442       C  0.73832809  0.18868173  0.76518719     0.62300
F1443       F  0.69018964  0.28054504  0.70291564    -0.22800
F1444       F  0.74991906  0.31276542  0.70092169    -0.20200
F1445       F  0.72061542  0.32175854  0.72791818    -0.19800
F1446       F  0.73657739  0.16293943  0.75137234    -0.19900
F1447       F  0.71271060  0.17261271  0.78117745    -0.20200
F1448       F  0.77154533  0.20449696  0.77498679    -0.22900
C1449       C  0.48030370  0.96563289  0.58172155    -0.05700
C1450       C  0.50959484  0.00118164  0.58206243     0.00200
C1451       C  0.99573255  0.49066587  0.59782300    -0.08400
C1452       C  0.95935410  0.48013115  0.59609790    -0.05700
C1453       C  0.94080891  0.46874419  0.57653948     0.00200
C1454       C  0.94677416  0.96176320  0.57569194    -0.08300
C1455       C  0.91787106  0.92402673  0.57009083     0.62100
H1456       H  0.48563372  0.94363997  0.58148101     0.12800
H1457       H  0.94504969  0.48130183  0.61006182     0.12800
C1458       C  0.53548826  0.55518257  0.60169794     0.62300
F1459       F  0.93210705  0.90366321  0.56257270    -0.22800
F1460       F  0.89617690  0.92538515  0.55404744    -0.20200
F1461       F  0.89759587  0.90690984  0.58819342    -0.19800
F1462       F  0.56087640  0.57709574  0.58667771    -0.19900
F1463       F  0.55194677  0.54819219  0.61869759    -0.20200
F1464       F  0.99254031  0.50419489  0.63499082    -0.22900
C1465       C  0.69149760  0.96926957  0.58441425    -0.05700
C1466       C  0.69435163  0.99842022  0.59607029     0.00200
C1467       C  0.73491195  0.51610950  0.58096971    -0.08400
C1468       C  0.76145351  0.50628179  0.57900895    -0.05700
C1469       C  0.75764520  0.47421977  0.58785777     0.00200
C1470       C  0.71816588  0.95949308  0.58481988    -0.08300
C1471       C  0.71406672  0.92900407  0.57083999     0.62100
H1472       H  0.66786112  0.95402869  0.57483893     0.12800
H1473       H  0.78577900  0.52380291  0.57023093     0.12800
C1474       C  0.73988795  0.54931537  0.56895211     0.62300
F1475       F  0.68304761  0.91457321  0.55871528    -0.22800
F1476       F  0.71272059  0.90191748  0.58375624    -0.20200
F1477       F  0.74263325  0.94125113  0.55672856    -0.19800
F1478       F  0.74196314  0.57430749  0.58348701    -0.19900
F1479       F  0.71149599  0.54012740  0.55507790    -0.20200
F1480       F  0.77088719  0.56530172  0.55668594    -0.22900
C1481       C  0.59244107  0.06292040  0.65150651    -0.05700
C1482       C  0.59797971  0.03326819  0.65139094     0.00200
C1483       C  0.60301773  0.01993460  0.67120720    -0.08400
C1484       C  0.60420321  0.03803418  0.69028339    -0.05700
C1485       C  0.60064439  0.06905688  0.69030036     0.00200
C1486       C  0.59370577  0.08113464  0.67047437    -0.08300
C1487       C  0.58876852  0.11363485  0.66897031     0.62100
H1488       H  0.58793021  0.07242902  0.63622778     0.12800
H1489       H  0.60837269  0.02804518  0.70547804     0.12800
C1490       C  0.60815668  0.98757276  0.67220152     0.62300
F1491       F  0.58471176  0.12192609  0.64787906    -0.22800
F1492       F  0.61835137  0.14316956  0.67741058    -0.20200
F1493       F  0.55844490  0.10693954  0.68025155    -0.19800
F1494       F  0.63710172  0.99374237  0.65966454    -0.19900
F1495       F  0.57781020  0.95788058  0.66463786    -0.20200
F1496       F  0.61430791  0.97998139  0.69302488    -0.22900
C1497       C  0.82949196  0.49928427  0.48347292    -0.05700
C1498       C  0.83846850  0.47723004  0.47158702     0.00200
C1499       C  0.85017370  0.45596979  0.48258298    -0.08400
C1500       C  0.85218649  0.45741258  0.50514782    -0.05700
C1501       C  0.84421234  0.48019057  0.51697178     0.00200
C1502       C  0.83242462  0.50137324  0.50606183    -0.08300
C1503       C  0.82231854  0.52535046  0.51816504     0.62100
H1504       H  0.82123996  0.51589793  0.47474341     0.12800
H1505       H  0.86076932  0.44105509  0.51385709     0.12800
C1506       C  0.85988899  0.93336881  0.48521000     0.62300
F1507       F  0.81022578  0.54265934  0.50445444    -0.22800
F1508       F  0.85176007  0.55119261  0.52904924    -0.20200
F1509       F  0.79536119  0.50494942  0.53273376    -0.19800
F1510       F  0.88911697  0.95323769  0.47194622    -0.19900
F1511       F  0.83536030  0.40848903  0.45822604    -0.20200
F1512       F  0.87393197  0.41588112  0.48457929    -0.22900
C1513       C  0.93288536  0.05843661  0.35709160    -0.05700
C1514       C  0.89828705  0.02788183  0.35780631     0.00200
C1515       C  0.88003415  0.01412749  0.33823030    -0.08400
C1516       C  0.89637265  0.03246573  0.31883957    -0.05700
C1517       C  0.93019605  0.06424468  0.31817358     0.00200
C1518       C  0.94926519  0.07682738  0.33769575    -0.08300
C1519       C  0.98622598  0.10980883  0.33829701     0.62100
H1520       H  0.94461391  0.58016546  0.36645365     0.12800
H1521       H  0.88227769  0.02205405  0.30384798     0.12800
C1522       C  0.84302730  0.98115485  0.33777474     0.62300
F1523       F  0.99630376  0.63291831  0.35588285    -0.22800
F1524       F  0.98534219  0.13873396  0.32897606    -0.20200
F1525       F  0.01901679  0.61877653  0.32783303    -0.19800
F1526       F  0.81980289  0.98654367  0.35033204    -0.19900
F1527       F  0.84462299  0.95178446  0.34563628    -0.20200
F1528       F  0.82922152  0.97345685  0.31710920    -0.22900
C1529       C  0.98559331  0.10045740  0.15949640    -0.05700
C1530       C  0.96975295  0.11734452  0.14811443     0.00200
C1531       C  0.95719988  0.13706103  0.15949076    -0.08400
C1532       C  0.96047632  0.13866852  0.18219579    -0.05700
C1533       C  0.97665239  0.12189391  0.19356499     0.00200
C1534       C  0.98901623  0.10209171  0.18202939    -0.08300
C1535       C  0.00406860  0.08119476  0.19352561     0.62100
H1536       H  0.99573213  0.08613133  0.15039025     0.12800
H1537       H  0.94980179  0.15246886  0.19132377     0.12800
C1538       C  0.94061397  0.15617755  0.14762183     0.62300
F1539       F  0.01570072  0.06476997  0.17922682    -0.22800
F1540       F  0.97780803  0.05481665  0.20634960    -0.20200
F1541       F  0.03278018  0.10391690  0.20616632    -0.19800
F1542       F  0.40663347  0.10261875  0.13531630    -0.19900
F1543       F  0.96455037  0.18014634  0.13263757    -0.20200
F1544       F  0.93128437  0.17503020  0.16153276    -0.22900
C1545       C  0.62271086  0.46588058  0.49450200    -0.05700
C1546       C  0.61564936  0.49000962  0.48275406     0.00200
C1547       C  0.60665265  0.51273727  0.49405589    -0.08400
C1548       C  0.61401119  0.02379882  0.51334727    -0.05700
C1549       C  0.61208135  0.48632927  0.52839028     0.00200
C1550       C  0.62111701  0.46365862  0.51721911    -0.08300
C1551       C  0.62950203  0.43781340  0.52920368     0.62100
H1552       H  0.62891070  0.44817732  0.48562662     0.12800
H1553       H  0.61375436  0.04577595  0.52141606     0.12800
C1554       C  0.59691125  0.53803897  0.48248024     0.62300
F1555       F  0.63936313  0.41938470  0.51530444    -0.22800
F1556       F  0.57095976  0.91458341  0.53667155    -0.20200
F1557       F  0.65736234  0.45641401  0.54342147    -0.19800
F1558       F  0.59284234  0.04617921  0.46376634    -0.19900
F1559       F  0.62570566  0.56302122  0.47043728    -0.20200
F1560       F  0.58760548  0.55652218  0.49671040    -0.22900
C1561       C  0.72139915  0.00535903  0.39898846    -0.05700
C1562       C  0.69061852  0.47746891  0.40864228     0.00200
C1563       C  0.70132052  0.45424056  0.41836229    -0.08400
C1564       C  0.73719644  0.46252747  0.41606935    -0.05700
C1565       C  0.76704815  0.99370288  0.41326381     0.00200
C1566       C  0.75749793  0.01397053  0.39961840    -0.08300
C1567       C  0.78521467  0.04409031  0.38558701     0.62100
H1568       H  0.71398132  0.02090307  0.38851766     0.12800
H1569       H  0.74580120  0.44523714  0.42357161     0.12800
C1570       C  0.67570387  0.42144359  0.43161759     0.62300
F1571       F  0.77018934  0.05958835  0.37270746    -0.22800
F1572       F  0.80157412  0.03101258  0.37231383    -0.20200
F1573       F  0.81075073  0.07044136  0.39847239    -0.19800
F1574       F  0.64802488  0.39757702  0.41872545    -0.19900
F1575       F  0.66210477  0.43157958  0.44854773    -0.20200
F1576       F  0.69231675  0.40368301  0.44025439    -0.22900
C1577       C  0.94137038  0.45777985  0.42183866    -0.05700
C1578       C  0.94849086  0.98558662  0.42839105     0.00200
C1579       C  0.98330014  0.01266949  0.43422618    -0.08400
C1580       C  0.52013639  0.02436618  0.41491645    -0.05700
C1581       C  0.50583071  0.47884823  0.42925022     0.00200
C1582       C  0.96867943  0.44913011  0.42357918    -0.08300
C1583       C  0.95872835  0.40999616  0.42531878     0.62100
H1584       H  0.91403423  0.43606871  0.42106539     0.12800
H1585       H  0.54449593  0.04199117  0.40620233     0.12800
C1586       C  0.49978279  0.06884714  0.40557501     0.62300
F1587       F  0.92209604  0.38728750  0.42652743    -0.22800
F1588       F  0.97348859  0.40455564  0.44383371    -0.20200
F1589       F  0.97109684  0.40062282  0.40744182    -0.19800
F1590       F  0.49730792  0.09055753  0.42086017    -0.19900
F1591       F  0.98645587  0.06727415  0.42317605    -0.20200
F1592       F  0.53324637  0.08781245  0.39606545    -0.22900
C1593       C  0.94939418  0.24658536  0.25597781    -0.05700
C1594       C  0.98412981  0.27421365  0.26140342     0.00200
C1595       C  0.50501593  0.26400182  0.27787220    -0.08400
C1596       C  0.49478430  0.22736914  0.27768432    -0.05700
C1597       C  0.96491662  0.20009897  0.26318566     0.00200
C1598       C  0.93935113  0.20982093  0.25650398    -0.08300
C1599       C  0.90191449  0.18202903  0.24959803     0.62100
H1600       H  0.93014479  0.25415243  0.25060959     0.12800
H1601       H  0.51015450  0.21846470  0.28709248     0.12800
C1602       C  0.53567875  0.28970025  0.29203098     0.62300
F1603       F  0.88114176  0.19729878  0.24445756    -0.22800
F1604       F  0.88501590  0.15752746  0.26619766    -0.20200
F1605       F  0.90372022  0.16451245  0.23155299    -0.19800
F1606       F  0.52404766  0.30701698  0.30561199    -0.19900
F1607       F  0.56336777  0.31478438  0.27934964    -0.20200
F1608       F  0.54885929  0.27214060  0.30465835    -0.22900
C1609       C  0.47865583  0.97196018  0.23138321    -0.05700
C1610       C  0.00706465  0.46998212  0.23982256     0.00200
C1611       C  0.03199040  0.50222227  0.24968674    -0.08400
C1612       C  0.02408914  0.53007075  0.25071278    -0.05700
C1613       C  0.96991166  0.01541817  0.25112497     0.00200
C1614       C  0.46761366  0.99794461  0.23161986    -0.08300
C1615       C  0.44412991  0.99911772  0.21376036     0.62100
H1616       H  0.46867433  0.95168437  0.21906000     0.12800
H1617       H  0.04249007  0.55408300  0.25919497     0.12800
C1618       C  0.06558881  0.50650253  0.26031819     0.62300
F1619       F  0.43779676  0.97418299  0.19801980    -0.22800
F1620       F  0.46059858  0.03275143  0.20409304    -0.20200
F1621       F  0.41155334  0.99181875  0.22220003    -0.19800
F1622       F  0.08627425  0.50166233  0.24526769    -0.19900
F1623       F  0.05621929  0.48142153  0.27671130    -0.20200
F1624       F  0.08623494  0.54010884  0.26910700    -0.22900
C1625       C  0.56665905  0.43901612  0.32035158    -0.05700
C1626       C  0.52982331  0.41300208  0.31865067     0.00200
C1627       C  0.50785817  0.40571089  0.33710590    -0.08400
C1628       C  0.52400019  0.42284477  0.35660436    -0.05700
C1629       C  0.56087732  0.44747277  0.35824994     0.00200
C1630       C  0.58251568  0.45636060  0.33973199    -0.08300
C1631       C  0.62243268  0.48276939  0.34067003     0.62100
H1632       H  0.58357362  0.44573026  0.30624843     0.12800
H1633       H  0.50791380  0.41654315  0.37106110     0.12800
C1634       C  0.97089709  0.36573795  0.33219796     0.62300
F1635       F  0.63890109  0.48705013  0.32088826    -0.22800
F1636       F  0.63841418  0.47074145  0.35538825    -0.20200
F1637       F  0.62816675  0.51593184  0.34687255    -0.19800
F1638       F  0.97101542  0.33702472  0.32256907    -0.19900
F1639       F  0.94859106  0.37452541  0.32088199    -0.20200
F1640       F  0.95700519  0.35505782  0.35277959    -0.22900
C1641       C  0.51131834  0.39606911  0.18284149    -0.05700
C1642       C  0.98485180  0.35465131  0.18862353     0.00200
C1643       C  0.95303741  0.32857108  0.17871508    -0.08400
C1644       C  0.95148816  0.32786801  0.15607034    -0.05700
C1645       C  0.98062695  0.35176734  0.14289986     0.00200
C1646       C  0.51506200  0.39808585  0.16029066    -0.08300
C1647       C  0.53495320  0.43440585  0.14906727     0.62100
H1648       H  0.52398871  0.42040801  0.19215903     0.12800
H1649       H  0.92670366  0.30884397  0.14845402     0.12800
C1650       C  0.92098873  0.30120955  0.19172029     0.62300
F1651       F  0.54970199  0.46221314  0.16360066    -0.22800
F1652       F  0.51164218  0.43926233  0.13603921    -0.20200
F1653       F  0.56237830  0.43632081  0.13664894    -0.19800
F1654       F  0.90530752  0.31798920  0.20222121    -0.19900
F1655       F  0.93176507  0.28435440  0.20665759    -0.20200
F1656       F  0.89526305  0.27500313  0.17878860    -0.22900
O1657       O  0.53405243  0.93745633  0.24711472    -0.74400
O1658       O  0.53126410  0.84549024  0.25480834    -0.74400
O1659       O  0.52471593  0.88291636  0.22133216    -0.74400
O1660       O  0.54603739  0.90294983  0.28011915    -0.74500
O1661       O  0.98266990  0.86921599  0.29304700    -0.74400
O1662       O  0.95803331  0.84715866  0.23212943    -0.74400
O1663       O  0.97031330  0.81414463  0.26608284    -0.74400
O1664       O  0.96573374  0.89895505  0.25947851    -0.74400
Ni1665     Ni  0.53609291  0.89303939  0.25062175     1.25400
Ni1666     Ni  0.96711141  0.85615009  0.26307880     1.25400
C1667       C  0.50429969  0.93760876  0.24910807     0.87800
C1668       C  0.50092062  0.81773543  0.25986979     0.87800
C1669       C  0.98408674  0.86012936  0.21840789     0.87800
C1670       C  0.52186248  0.89661592  0.29394316     0.87900
O1671       O  0.54332319  0.95381399  0.42417505    -0.74400
O1672       O  0.62945182  0.94663118  0.41781943    -0.74400
O1673       O  0.59593610  0.95936962  0.45024607    -0.74400
O1674       O  0.57337315  0.93592877  0.39194872    -0.74500
O1675       O  0.60262476  0.99327229  0.38186250    -0.74400
O1676       O  0.62762776  0.01754950  0.44237363    -0.74400
O1677       O  0.65844196  0.00419567  0.40825022    -0.74400
O1678       O  0.57582989  0.01151809  0.41550521    -0.74400
Ni1679     Ni  0.58452897  0.94685323  0.42127064     1.25400
Ni1680     Ni  0.61739898  0.00865796  0.41158667     1.25400
C1681       C  0.54605618  0.98481400  0.42117858     0.87800
C1682       C  0.65874755  0.97536050  0.41255100     0.87800
C1683       C  0.61435437  0.99160649  0.45637279     0.87800
C1684       C  0.58224507  0.95986787  0.37729241     0.87900
O1685       O  0.95575855  0.55622550  0.24257220    -0.74400
O1686       O  0.94900488  0.64141253  0.25323220    -0.74400
O1687       O  0.96438646  0.61353276  0.21929768    -0.74400
O1688       O  0.93604640  0.58154596  0.27625440    -0.74500
O1689       O  0.99241528  0.60896141  0.28761632    -0.74400
O1690       O  0.02192161  0.64274357  0.22861631    -0.74400
O1691       O  0.00593746  0.66859152  0.26379425    -0.74400
O1692       O  0.01248318  0.58639204  0.25287990    -0.74400
Ni1693     Ni  0.94923084  0.59719493  0.24757929     1.25400
Ni1694     Ni  0.01019629  0.62783446  0.25870012     1.25400
C1695       C  0.98603943  0.55780166  0.24582719     0.90200
C1696       C  0.97760334  0.66960222  0.25944981     0.87800
C1697       C  0.99718853  0.63256116  0.21423179     0.87800
C1698       C  0.95870759  0.58821491  0.29121130     0.87900
O1699       O  0.91675291  0.52805494  0.41851413    -0.74400
O1700       O  0.82770587  0.52851835  0.40869140    -0.74400
O1701       O  0.86013769  0.51697900  0.44236652    -0.74400
O1702       O  0.88735304  0.54398321  0.38455853    -0.74500
O1703       O  0.86225529  0.48714266  0.37461256    -0.74400
O1704       O  0.83376281  0.95672312  0.44503348    -0.74400
O1705       O  0.80415657  0.96882097  0.40978748    -0.74400
O1706       O  0.88792887  0.96418797  0.41966769    -0.74400
Ni1707     Ni  0.87380876  0.53150153  0.41367106     1.25400
Ni1708     Ni  0.84577672  0.96569329  0.41439294     1.25400
C1709       C  0.91673462  0.49838516  0.41592181     0.87800
C1710       C  0.79983520  0.49865542  0.40363840     0.87800
C1711       C  0.84348948  0.48417868  0.44814385     0.87800
C1712       C  0.88228377  0.52083585  0.37036946     0.87900
O1713       O  0.58454685  0.53087854  0.58446697    -0.74400
O1714       O  0.67402536  0.52993543  0.59093817    -0.74400
O1715       O  0.62943242  0.52235205  0.55864030    -0.74400
O1716       O  0.63114158  0.54377617  0.61721452    -0.74500
O1717       O  0.59845770  0.48624772  0.62637615    -0.74400
O1718       O  0.59232536  0.96969618  0.56289900    -0.74400
O1719       O  0.63259437  0.97592818  0.59815599    -0.74400
O1720       O  0.54686780  0.97697135  0.58940009    -0.74400
Ni1721     Ni  0.63103429  0.53382683  0.58771830     1.25400
Ni1722     Ni  0.58915395  0.97565139  0.59396400     1.25400
C1723       C  0.55506576  0.50073758  0.58650001     0.87800
C1724       C  0.67229106  0.49970746  0.59527037     0.87800
C1725       C  0.61404091  0.49027958  0.55211623     0.87800
C1726       C  0.61303892  0.51970897  0.63129602     0.87900
O1727       O  0.57617365  0.55017083  0.76081466    -0.74400
O1728       O  0.66568315  0.63957522  0.74996672    -0.74400
O1729       O  0.62207459  0.60786267  0.78371479    -0.74400
O1730       O  0.62188651  0.57835156  0.72688171    -0.74500
O1731       O  0.59087070  0.60378075  0.71524250    -0.74400
O1732       O  0.59111386  0.63453393  0.77417023    -0.74400
O1733       O  0.63328517  0.66401986  0.73908576    -0.74400
O1734       O  0.54748579  0.57818651  0.74973482    -0.74400
Ni1735     Ni  0.62270007  0.59309820  0.75554736     1.25400
Ni1736     Ni  0.58978416  0.62117746  0.74404833     1.25400
C1737       C  0.54667577  0.55024979  0.75735628     0.87800
C1738       C  0.66336634  0.66724066  0.74403199     0.87800
C1739       C  0.60649850  0.62516516  0.78870222     0.87800
C1740       C  0.60527248  0.58423404  0.71181239     0.87900
O1741       O  0.87310430  0.95126186  0.58490362    -0.74400
O1742       O  0.78123219  0.94652483  0.59334358    -0.74400
O1743       O  0.82331746  0.95302835  0.55947257    -0.74400
O1744       O  0.82912329  0.93943475  0.61895329    -0.74500
O1745       O  0.85765197  0.99830458  0.62461936    -0.74400
O1746       O  0.85170410  0.01237901  0.56271083    -0.74400
O1747       O  0.81106536  0.00552787  0.59788596    -0.74400
O1748       O  0.89940301  0.00994332  0.58961094    -0.74400
Ni1749     Ni  0.82557004  0.94543278  0.58910345     1.25400
Ni1750     Ni  0.85578603  0.00862766  0.59394436     1.25400
C1751       C  0.90169556  0.98234578  0.58545241     0.87800
C1752       C  0.78155442  0.97626153  0.59649513     0.87800
C1753       C  0.83744892  0.98412159  0.55094692     0.87800
C1754       C  0.84471520  0.96576041  0.63158675     0.87900
O1755       O  0.86626390  0.93376733  0.76173259    -0.74400
O1756       O  0.77740587  0.84358761  0.75265452    -0.74400
O1757       O  0.82089059  0.87663936  0.78642447    -0.74400
O1758       O  0.82097099  0.90378385  0.72832438    -0.74500
O1759       O  0.85263134  0.87869806  0.71823003    -0.74400
O1760       O  0.85271653  0.85063785  0.77823491    -0.74400
O1761       O  0.81019016  0.81931774  0.74349950    -0.74400
O1762       O  0.89576598  0.90611840  0.75224817    -0.74400
Ni1763     Ni  0.82008799  0.89024127  0.75752373     1.25400
Ni1764     Ni  0.85367064  0.86254127  0.74767356     1.25400
C1765       C  0.89602103  0.93427699  0.75837529     0.87800
C1766       C  0.77963590  0.81595923  0.74714676     0.87800
C1767       C  0.83749756  0.86050098  0.79226826     0.87800
C1768       C  0.83828758  0.89810657  0.71382725     0.87900
O1769       O  0.91866275  0.88661717  0.91693652    -0.74400
O1770       O  0.82804095  0.79739198  0.92415705    -0.74400
O1771       O  0.86372792  0.84267096  0.89128719    -0.74400
O1772       O  0.88591935  0.83951223  0.94973633    -0.74500
O1773       O  0.86247617  0.87296933  0.95895243    -0.74400
O1774       O  0.83492387  0.87211509  0.89874092    -0.74400
O1775       O  0.80339087  0.82951114  0.93386598    -0.74400
O1776       O  0.89014922  0.91644624  0.92408931    -0.74400
Ni1777     Ni  0.87489022  0.84030909  0.92032525     1.25400
Ni1778     Ni  0.84655139  0.87363995  0.92933588     1.25400
C1779       C  0.91872132  0.91638636  0.91924705     0.87800
C1780       C  0.80007685  0.79916165  0.92939977     0.87800
C1781       C  0.84643329  0.85790041  0.88506352     0.87800
C1782       C  0.88086674  0.85767550  0.96387256     0.87900
O1783       O  0.93996160  0.89029832  0.09334275    -0.74400
O1784       O  0.93844725  0.79966480  0.08429649    -0.74400
O1785       O  0.94694228  0.84188302  0.11841845    -0.74400
O1786       O  0.92570935  0.84592631  0.05974484    -0.74500
O1787       O  0.98341651  0.87638570  0.05087938    -0.74400
O1788       O  0.00543919  0.87223180  0.11171478    -0.74400
O1789       O  0.99617367  0.83156556  0.07644746    -0.74400
O1790       O  0.99785242  0.91811400  0.08552002    -0.74400
Ni1791     Ni  0.93562144  0.84319268  0.08915797     1.25400
Ni1792     Ni  0.99771694  0.87539780  0.08081818     1.25400
C1793       C  0.97023118  0.91953871  0.09079393     0.87800
C1794       C  0.96827025  0.80121022  0.07933677     0.87800
C1795       C  0.97900003  0.85707058  0.12511840     0.87800
C1796       C  0.95012555  0.86281764  0.04576977     0.87900
O1797       O  0.53144984  0.59680014  0.91459512    -0.74400
O1798       O  0.62398351  0.68415590  0.92137075    -0.74400
O1799       O  0.58605575  0.64166656  0.88842232    -0.74400
O1800       O  0.56668845  0.64179047  0.94727695    -0.74500
O1801       O  0.58900153  0.60651951  0.95543020    -0.74400
O1802       O  0.61331234  0.60999039  0.89435492    -0.74400
O1803       O  0.64736623  0.64973607  0.92954778    -0.74400
O1804       O  0.55875561  0.56514755  0.92051766    -0.74400
Ni1805     Ni  0.57627850  0.64236647  0.91772038     1.25400
Ni1806     Ni  0.60324200  0.60684444  0.92530444     1.25400
C1807       C  0.53051982  0.56641093  0.91643365     0.87800
C1808       C  0.65131358  0.68078605  0.92619491     0.87800
C1809       C  0.60205003  0.62589015  0.88134687     0.87800
C1810       C  0.57201025  0.62280561  0.96104499     0.87900
O1811       O  0.53177518  0.60176255  0.09189943    -0.74400
O1812       O  0.52585037  0.68898049  0.08229388    -0.74400
O1813       O  0.52482022  0.64884554  0.11675908    -0.74400
O1814       O  0.53868092  0.64400459  0.05727262    -0.74500
O1815       O  0.97594966  0.60322228  0.04917781    -0.74400
O1816       O  0.96648197  0.61405384  0.11092269    -0.74400
O1817       O  0.96836145  0.65067835  0.07463415    -0.74400
O1818       O  0.96824258  0.56490424  0.08534128    -0.74400
Ni1819     Ni  0.53244710  0.64731904  0.08708700     1.25400
Ni1820     Ni  0.96767021  0.60731251  0.07986012     1.25400
C1821       C  0.50213077  0.57153400  0.09122285     0.87800
C1822       C  0.49443135  0.68511964  0.07918207     0.87800
C1823       C  0.99555942  0.62915360  0.12210831     0.87800
C1824       C  0.51277816  0.62512434  0.04474119     0.87900
C1825       C  0.52710405  0.62697724  0.98406419    -0.05700
C1826       C  0.55543855  0.61928292  0.98291825     0.00200
C1827       C  0.56600300  0.60911792  0.00217400    -0.08400
C1828       C  0.54975394  0.60969939  0.02178658    -0.05700
C1829       C  0.52284521  0.61918038  0.02287165     0.00200
C1830       C  0.51061224  0.62703519  0.00360117    -0.08300
C1831       C  0.48131938  0.63675890  0.00371265     0.62100
H1832       H  0.51780086  0.63334529  0.96931879     0.12800
H1833       H  0.55852704  0.60331323  0.03676432     0.12800
C1834       C  0.59453738  0.59837015  0.00226734     0.62300
F1835       F  0.47402060  0.64449347  0.98320426    -0.22800
F1836       F  0.49156696  0.66655217  0.01625783    -0.20200
F1837       F  0.94290311  0.59712567  0.01027074    -0.19800
F1838       F  0.62593367  0.62579226  0.99356901    -0.19900
F1839       F  0.58305704  0.56772543  0.99028386    -0.20200
F1840       F  0.60182230  0.59115398  0.02290635    -0.22900
C1841       C  0.49523122  0.77231514  0.06467242    -0.05700
C1842       C  0.97322387  0.76900885  0.07747146     0.00200
C1843       C  0.94606823  0.73301030  0.08109471    -0.08400
C1844       C  0.95538581  0.70588892  0.08079841    -0.05700
C1845       C  0.99056963  0.71278060  0.07659166     0.00200
C1846       C  0.50683274  0.74693672  0.06575190    -0.08300
C1847       C  0.53989942  0.75357193  0.05342535     0.62100
H1848       H  0.51072313  0.79646447  0.05513757     0.12800
H1849       H  0.93474182  0.67861451  0.08424532     0.12800
C1850       C  0.90739402  0.72275931  0.08516058     0.62300
F1851       F  0.55335524  0.78409780  0.04053550    -0.22800
F1852       F  0.53177513  0.72489858  0.04027659    -0.20200
F1853       F  0.56625183  0.75778666  0.06779693    -0.19800
F1854       F  0.89510725  0.73485499  0.06819767    -0.19900
F1855       F  0.90479340  0.73765575  0.10417984    -0.20200
F1856       F  0.88515821  0.68600776  0.08690746    -0.22900
C1857       C  0.00834692  0.98520660  0.08515751    -0.05700
C1858       C  0.97586723  0.95653370  0.09344626     0.00200
C1859       C  0.95229093  0.96477625  0.10446928    -0.08400
C1860       C  0.96453512  0.50270372  0.07276151    -0.05700
C1861       C  0.99116076  0.52646522  0.08695874     0.00200
C1862       C  0.52690577  0.52803720  0.09524146    -0.08300
C1863       C  0.56575708  0.55765672  0.09448514     0.62100
H1864       H  0.52390458  0.97906300  0.07485432     0.12800
H1865       H  0.95370596  0.51359222  0.06103803     0.12800
C1866       C  0.91786114  0.93596255  0.11475828     0.62300
F1867       F  0.58901421  0.54428495  0.09545549    -0.22800
F1868       F  0.57297258  0.57998956  0.11186409    -0.20200
F1869       F  0.57247419  0.57719751  0.07548998    -0.19800
F1870       F  0.92529530  0.91591588  0.12930655    -0.19900
F1871       F  0.89505428  0.91392357  0.09898996    -0.20200
F1872       F  0.90029487  0.95037956  0.12579913    -0.22900
C1873       C  0.73449488  0.77245697  0.93674808    -0.05700
C1874       C  0.76258246  0.76709241  0.92950989     0.00200
C1875       C  0.75318492  0.73295414  0.92108359    -0.08400
C1876       C  0.71667549  0.70615042  0.92040067    -0.05700
C1877       C  0.68882645  0.71197309  0.92717770     0.00200
C1878       C  0.69798264  0.74585609  0.93551368    -0.08300
C1879       C  0.66950197  0.75389435  0.94337348     0.62100
H1880       H  0.74119281  0.79828534  0.94315220     0.12800
H1881       H  0.70942062  0.68010547  0.91406303     0.12800
C1882       C  0.78099308  0.72454878  0.91235701     0.62300
F1883       F  0.68419934  0.78731464  0.95267199    -0.22800
F1884       F  0.64814142  0.72856475  0.95866383    -0.20200
F1885       F  0.64867353  0.75327690  0.92619976    -0.19800
F1886       F  0.80506145  0.72869530  0.92841239    -0.19900
F1887       F  0.79885674  0.74721806  0.89514580    -0.20200
F1888       F  0.76579051  0.68971399  0.90511338    -0.22900
C1889       C  0.94969389  0.97865898  0.90465090    -0.05700
C1890       C  0.95155885  0.95202317  0.91717988     0.00200
C1891       C  0.98155582  0.96193226  0.93052224    -0.08400
C1892       C  0.49505468  0.50684338  0.89938444    -0.05700
C1893       C  0.49705687  0.53126164  0.91501253     0.00200
C1894       C  0.96894442  0.51127939  0.89780028    -0.08300
C1895       C  0.96454643  0.53814563  0.88399407     0.62100
H1896       H  0.92625460  0.97066779  0.89473274     0.12800
H1897       H  0.51495104  0.51676268  0.88666032     0.12800
C1898       C  0.48387835  0.92823779  0.93219500     0.62300
F1899       F  0.93425545  0.52172658  0.87125773    -0.22800
F1900       F  0.99380413  0.55629538  0.87053129    -0.20200
F1901       F  0.96156297  0.56227906  0.89704038    -0.19800
F1902       F  0.47899905  0.90341167  0.91672880    -0.19900
F1903       F  0.95639117  0.92035485  0.95937362    -0.20200
F1904       F  0.51817886  0.94208324  0.94024088    -0.22900
C1905       C  0.92609051  0.85175249  0.98622737    -0.05700
C1906       C  0.89937213  0.86184149  0.98527202     0.00200
C1907       C  0.89317767  0.87640558  0.00406264    -0.08400
C1908       C  0.91215672  0.87812713  0.02308965    -0.05700
C1909       C  0.93769166  0.86681126  0.02400190     0.00200
C1910       C  0.94544566  0.85422639  0.00513284    -0.08300
C1911       C  0.97324286  0.84244743  0.00518108     0.62100
H1912       H  0.93210765  0.84182522  0.97185978     0.12800
H1913       H  0.90666275  0.88780169  0.03778680     0.12800
C1914       C  0.86648138  0.88958085  0.00439274     0.62300
F1915       F  0.97609966  0.82992124  0.98529303    -0.22800
F1916       F  0.96413371  0.81524645  0.02026169    -0.20200
F1917       F  0.49514773  0.87113365  0.00992413    -0.19800
F1918       F  0.83305012  0.86221357  0.99852888    -0.19900
F1919       F  0.87739151  0.91830025  0.99024230    -0.20200
F1920       F  0.86348054  0.90093515  0.02463965    -0.22900
C1921       C  0.80855602  0.84561822  0.82821434    -0.05700
C1922       C  0.83960967  0.85561833  0.81584605     0.00200
C1923       C  0.87266690  0.86780133  0.82649577    -0.08400
C1924       C  0.87338672  0.86937384  0.84909503    -0.05700
C1925       C  0.84252491  0.85969276  0.86143010     0.00200
C1926       C  0.80941314  0.84734669  0.85092717    -0.08300
C1927       C  0.77530391  0.83565162  0.86361219     0.62100
H1928       H  0.78359243  0.83713218  0.81982440     0.12800
H1929       H  0.89846232  0.87843341  0.85747874     0.12800
C1930       C  0.90737441  0.88082356  0.81415882     0.62300
F1931       F  0.74568657  0.82277705  0.85032130    -0.22800
F1932       F  0.77795882  0.86448361  0.87471153    -0.20200
F1933       F  0.76990149  0.80870045  0.87813008    -0.19800
F1934       F  0.91320611  0.90914212  0.80077204    -0.19900
F1935       F  0.90550758  0.85329762  0.80200892    -0.20200
F1936       F  0.93652663  0.89256077  0.82775575    -0.22900
C1937       C  0.87341919  0.94695958  0.65925777    -0.05700
C1938       C  0.84730087  0.95630579  0.65424828     0.00200
C1939       C  0.81863010  0.94648911  0.66864571    -0.08400
C1940       C  0.81636134  0.92659997  0.68736658    -0.05700
C1941       C  0.84194196  0.91622263  0.69236859     0.00200
C1942       C  0.87167553  0.92757302  0.67826489    -0.08300
C1943       C  0.90167831  0.91983559  0.68315928     0.62100
H1944       H  0.89456075  0.95381298  0.64762873     0.12800
H1945       H  0.79394946  0.91856720  0.69817207     0.12800
C1946       C  0.79002541  0.95629342  0.66380347     0.62300
F1947       F  0.92890460  0.93545150  0.66803446    -0.22800
F1948       F  0.88859646  0.88326400  0.68310446    -0.20200
F1949       F  0.91624716  0.93337959  0.70310294    -0.19800
F1950       F  0.83064780  0.49320069  0.64949270    -0.19900
F1951       F  0.89082406  0.51844310  0.65020856    -0.20200
F1952       F  0.86000966  0.50772346  0.68088989    -0.22900
C1953       C  0.63733419  0.63994584  0.82378504    -0.05700
C1954       C  0.60616444  0.63193892  0.81201869     0.00200
C1955       C  0.57422372  0.62238925  0.82328387    -0.08400
C1956       C  0.57417147  0.61930549  0.84586818    -0.05700
C1957       C  0.60488581  0.62580052  0.85757034     0.00200
C1958       C  0.63732112  0.63722557  0.84644672    -0.08300
C1959       C  0.67166256  0.64695482  0.85839346     0.62100
H1960       H  0.66162318  0.64717980  0.81491533     0.12800
H1961       H  0.54974681  0.61155564  0.85471682     0.12800
C1962       C  0.54010880  0.61440191  0.81159080     0.62300
F1963       F  0.70068752  0.65980580  0.84455408    -0.22800
F1964       F  0.66834430  0.61699039  0.86900821    -0.20200
F1965       F  0.67858345  0.67328867  0.87322911    -0.19800
F1966       F  0.52990128  0.58580628  0.79797486    -0.19900
F1967       F  0.54581896  0.64423902  0.79971632    -0.20200
F1968       F  0.51215527  0.60574908  0.82573926    -0.22900
C1969       C  0.98864851  0.52205185  0.73950612    -0.05700
C1970       C  0.51009284  0.51899763  0.76169812     0.00200
C1971       C  0.50373923  0.98825250  0.76714243    -0.08400
C1972       C  0.96143753  0.96039749  0.76296645    -0.05700
C1973       C  0.93222949  0.96657630  0.76124037     0.00200
C1974       C  0.95245173  0.49560320  0.73975553    -0.08300
C1975       C  0.92676965  0.49919769  0.72459293     0.62100
H1976       H  0.48725698  0.55355819  0.75986058     0.12800
H1977       H  0.95602748  0.93304737  0.76405138     0.12800
C1978       C  0.53307558  0.98020356  0.77353462     0.62300
F1979       F  0.94301768  0.53106018  0.71288068    -0.22800
F1980       F  0.89873267  0.49787814  0.73603157    -0.20200
F1981       F  0.91397740  0.47145531  0.71018190    -0.19800
F1982       F  0.55296793  0.00222219  0.79020923    -0.19900
F1983       F  0.55503221  0.98565464  0.75602954    -0.20200
F1984       F  0.51940835  0.94508709  0.78055253    -0.22900
C1985       C  0.68817635  0.73030401  0.75477519    -0.05700
C1986       C  0.69412587  0.70464656  0.74460831     0.00200
C1987       C  0.72694045  0.71616208  0.73401433    -0.08400
C1988       C  0.75321529  0.75282960  0.73465498    -0.05700
C1989       C  0.74787001  0.77869828  0.74535473     0.00200
C1990       C  0.71419720  0.76707973  0.75531071    -0.08300
C1991       C  0.70545890  0.79280509  0.76666505     0.62100
H1992       H  0.66252287  0.72104475  0.76250284     0.12800
H1993       H  0.77852408  0.76148557  0.72667625     0.12800
C1994       C  0.73357831  0.69011277  0.72142899     0.62300
F1995       F  0.67107629  0.77559864  0.77501440    -0.22800
F1996       F  0.70805028  0.81876357  0.75221189    -0.20200
F1997       F  0.72888632  0.80882364  0.78357145    -0.19800
F1998       F  0.70739373  0.67384790  0.70590778    -0.19900
F1999       F  0.73275578  0.66420098  0.73520897    -0.20200
F2000       F  0.76648245  0.70706888  0.71115584    -0.22900
C2001       C  0.49291567  0.46446426  0.57327797    -0.05700
C2002       C  0.51911609  0.49658811  0.58281713     0.00200
C2003       C  0.00363522  0.03302116  0.58300292    -0.08400
C2004       C  0.96754680  0.02411658  0.58402514    -0.05700
C2005       C  0.93874370  0.98858858  0.58165875     0.00200
C2006       C  0.95927080  0.46826218  0.55788125    -0.08300
C2007       C  0.94056617  0.45816435  0.53627398     0.62100
H2008       H  0.50135379  0.44668493  0.56670390     0.12800
H2009       H  0.96181546  0.04531463  0.58735326     0.12800
C2010       C  0.53185076  0.06873095  0.58139472     0.62300
F2011       F  0.96287849  0.45867134  0.52014798    -0.22800
F2012       F  0.92935094  0.48216369  0.53061428    -0.20200
F2013       F  0.91117999  0.42403701  0.53760652    -0.19800
F2014       F  0.55342434  0.07584255  0.56347420    -0.19900
F2015       F  0.55207058  0.07563745  0.59992438    -0.20200
F2016       F  0.01931978  0.09466033  0.58747936    -0.22900
C2017       C  0.70035363  0.46186408  0.60252845    -0.05700
C2018       C  0.70392765  0.49396068  0.59353952     0.00200
C2019       C  0.72406069  0.01740572  0.60967977    -0.08400
C2020       C  0.75056400  0.00733928  0.61045182    -0.05700
C2021       C  0.74856915  0.97918499  0.59794577     0.00200
C2022       C  0.72617962  0.45122432  0.59952231    -0.08300
C2023       C  0.72009039  0.41595401  0.60904074     0.62100
H2024       H  0.67655051  0.44447097  0.61177283     0.12800
H2025       H  0.77377279  0.02218220  0.62056444     0.12800
C2026       C  0.72739666  0.04756142  0.62359312     0.62300
F2027       F  0.68832172  0.39815417  0.62049331    -0.22800
F2028       F  0.74773021  0.42209062  0.62289166    -0.20200
F2029       F  0.71860684  0.39383045  0.59265775    -0.19800
F2030       F  0.69724456  0.03543473  0.63631354    -0.19900
F2031       F  0.73095634  0.07551738  0.61061140    -0.20200
F2032       F  0.75680440  0.06051785  0.63706270    -0.22900
C2033       C  0.60922290  0.56666931  0.65195740    -0.05700
C2034       C  0.60772348  0.53304185  0.65248507     0.00200
C2035       C  0.60208975  0.51511483  0.67262386    -0.08400
C2036       C  0.60021423  0.53245399  0.69139033    -0.05700
C2037       C  0.60276761  0.56654134  0.69075659     0.00200
C2038       C  0.60604764  0.58331810  0.67053275    -0.08300
C2039       C  0.60692232  0.61891766  0.66847850     0.62100
H2040       H  0.61296255  0.58025008  0.63657703     0.12800
H2041       H  0.59697982  0.51944818  0.70695226     0.12800
C2042       C  0.59918405  0.47859296  0.67450709     0.62300
F2043       F  0.61225362  0.63150567  0.64738898    -0.22800
F2044       F  0.63438203  0.64439951  0.68082278    -0.20200
F2045       F  0.57465973  0.61480883  0.67541113    -0.19800
F2046       F  0.62938150  0.48008871  0.66584857    -0.19900
F2047       F  0.56925438  0.45362976  0.66356683    -0.20200
F2048       F  0.59604339  0.46703879  0.69574528    -0.22900
C2049       C  0.82714479  0.00096831  0.49152308    -0.05700
C2050       C  0.83714267  0.97783994  0.48176123     0.00200
C2051       C  0.84753253  0.95757126  0.49486000    -0.08400
C2052       C  0.84779407  0.96138741  0.51731091    -0.05700
C2053       C  0.83874182  0.98517501  0.52708071     0.00200
C2054       C  0.82794261  0.00517484  0.51404942    -0.08300
C2055       C  0.81737430  0.03064580  0.52380547     0.62100
H2056       H  0.81999521  0.01689091  0.48117809     0.12800
H2057       H  0.85575837  0.94602330  0.52756193     0.12800
C2058       C  0.86279655  0.43376935  0.47064870     0.62300
F2059       F  0.80554658  0.04575008  0.50830343    -0.22800
F2060       F  0.84655478  0.05807836  0.53400565    -0.20200
F2061       F  0.79011580  0.01248280  0.53862812    -0.19800
F2062       F  0.89138508  0.45598416  0.45757760    -0.19900
F2063       F  0.83246879  0.90690330  0.47334665    -0.20200
F2064       F  0.86981126  0.91686093  0.50091427    -0.22900
C2065       C  0.93544055  0.56789769  0.35088669    -0.05700
C2066       C  0.90289179  0.53490673  0.34980739     0.00200
C2067       C  0.89191129  0.51780623  0.32967907    -0.08400
C2068       C  0.91265263  0.53553494  0.31132128    -0.05700
C2069       C  0.94370510  0.56968610  0.31223222     0.00200
C2070       C  0.95607563  0.58565142  0.33249296    -0.08300
C2071       C  0.99009630  0.62156633  0.33473326     0.62100
H2072       H  0.94698818  0.06831186  0.37215298     0.12800
H2073       H  0.90411155  0.52304022  0.29575128     0.12800
C2074       C  0.85808205  0.48179146  0.32725428     0.62300
F2075       F  0.99871243  0.11890473  0.35915982    -0.22800
F2076       F  0.98768274  0.64734649  0.32247236    -0.20200
F2077       F  0.01007367  0.10331059  0.32719236    -0.19800
F2078       F  0.82914878  0.48346702  0.33533633    -0.19900
F2079       F  0.86169816  0.45566689  0.33830237    -0.20200
F2080       F  0.85100799  0.47169179  0.30590139    -0.22900
C2081       C  0.01938380  0.62357277  0.15710608    -0.05700
C2082       C  0.99621894  0.63224435  0.14584078     0.00200
C2083       C  0.97944402  0.64820218  0.15700145    -0.08400
C2084       C  0.98336001  0.65125110  0.17955624    -0.05700
C2085       C  0.00450550  0.64008963  0.19098341     0.00200
C2086       C  0.02394774  0.62729780  0.17952614    -0.08300
C2087       C  0.04808088  0.61610899  0.19097708     0.62100
H2088       H  0.03369374  0.61331957  0.14812982     0.12800
H2089       H  0.96876468  0.66113653  0.18862300     0.12800
C2090       C  0.95873579  0.66301482  0.14510005     0.62300
F2091       F  0.06519066  0.60522470  0.17667606    -0.22800
F2092       F  0.02815133  0.58788070  0.20499564    -0.20200
F2093       F  0.07400069  0.64469606  0.20239956    -0.19800
F2094       F  0.41562798  0.61085966  0.13952480    -0.19900
F2095       F  0.98059169  0.68793189  0.12976796    -0.20200
F2096       F  0.94675933  0.67979864  0.15888129    -0.22900
C2097       C  0.61462123  0.96754680  0.49281844    -0.05700
C2098       C  0.61789989  0.99665581  0.48021155     0.00200
C2099       C  0.61786971  0.02553576  0.49073607    -0.08400
C2100       C  0.60520462  0.51048942  0.51665354    -0.05700
C2101       C  0.60966869  0.99416300  0.52592173     0.00200
C2102       C  0.60978744  0.96535915  0.51534566    -0.08300
C2103       C  0.60471264  0.93235699  0.52752556     0.62100
H2104       H  0.61460303  0.94549043  0.48466693     0.12800
H2105       H  0.59841338  0.52778229  0.52551461     0.12800
C2106       C  0.62072491  0.05751424  0.47828890     0.62300
F2107       F  0.60804221  0.90863340  0.51423737    -0.22800
F2108       F  0.59961220  0.41299242  0.54053998    -0.20200
F2109       F  0.63020130  0.94232496  0.54345408    -0.19800
F2110       F  0.56804004  0.51873714  0.46909541    -0.19900
F2111       F  0.65296266  0.07484677  0.46733472    -0.20200
F2112       F  0.61922546  0.08212613  0.49171883    -0.22900
C2113       C  0.71629025  0.50745087  0.39659041    -0.05700
C2114       C  0.69456451  0.97765344  0.41188319     0.00200
C2115       C  0.70439437  0.95736443  0.42561598    -0.08400
C2116       C  0.74040113  0.96554534  0.42577578    -0.05700
C2117       C  0.76292916  0.49321259  0.40478449     0.00200
C2118       C  0.75224585  0.51583908  0.39459959    -0.08300
C2119       C  0.77852323  0.54837512  0.38150619     0.62100
H2120       H  0.70814573  0.52498123  0.38894154     0.12800
H2121       H  0.74828051  0.95000457  0.43593948     0.12800
C2122       C  0.67763047  0.92803985  0.44054756     0.62300
F2123       F  0.76180632  0.56436658  0.37076136    -0.22800
F2124       F  0.79513779  0.53840509  0.36630343    -0.20200
F2125       F  0.80403150  0.57341165  0.39502305    -0.19800
F2126       F  0.65103141  0.90100516  0.42853354    -0.19900
F2127       F  0.66266899  0.94205436  0.45425062    -0.20200
F2128       F  0.69342366  0.91297035  0.45313935    -0.22900
C2129       C  0.94271368  0.95065336  0.42460119    -0.05700
C2130       C  0.94814585  0.49349133  0.42063958     0.00200
C2131       C  0.98369929  0.52168846  0.42335284    -0.08400
C2132       C  0.51063186  0.51359776  0.43175647    -0.05700
C2133       C  0.51567290  0.99191170  0.42388408     0.00200
C2134       C  0.97050359  0.94246798  0.42479564    -0.08300
C2135       C  0.96247928  0.90484314  0.41953712     0.62100
H2136       H  0.91604523  0.92942343  0.42086420     0.12800
H2137       H  0.53749711  0.53579588  0.43377938     0.12800
C2138       C  0.48931693  0.55859282  0.43401446     0.62300
F2139       F  0.92667518  0.88226950  0.41498970    -0.22800
F2140       F  0.97126411  0.89032648  0.43693150    -0.20200
F2141       F  0.98208502  0.90595607  0.40169477    -0.19800
F2142       F  0.46915962  0.55931551  0.45106827    -0.19900
F2143       F  0.98375744  0.57133721  0.40599709    -0.20200
F2144       F  0.52490766  0.58207442  0.43861383    -0.22900
C2145       C  0.96732483  0.74952397  0.27393963    -0.05700
C2146       C  0.99609213  0.77741856  0.26223428     0.00200
C2147       C  0.51726863  0.77070248  0.27259769    -0.08400
C2148       C  0.50807803  0.73425021  0.27343640    -0.05700
C2149       C  0.98069965  0.70533355  0.25999388     0.00200
C2150       C  0.95915381  0.71354875  0.27296866    -0.08300
C2151       C  0.92829608  0.68463923  0.28598697     0.62100
H2152       H  0.95079182  0.75603208  0.28381792     0.12800
H2153       H  0.52571825  0.72722154  0.28192511     0.12800
C2154       C  0.54967685  0.79848884  0.28476294     0.62300
F2155       F  0.91173054  0.69857756  0.29844965    -0.22800
F2156       F  0.94065462  0.66750179  0.29959783    -0.20200
F2157       F  0.90304839  0.65986313  0.27223287    -0.19800
F2158       F  0.53941757  0.81647552  0.29874892    -0.19900
F2159       F  0.57473168  0.82275612  0.27039698    -0.20200
F2160       F  0.56573946  0.78308289  0.29678753    -0.22900
C2161       C  0.47631815  0.46800574  0.23553281    -0.05700
C2162       C  0.98782318  0.95996358  0.25138577     0.00200
C2163       C  0.01413270  0.99513158  0.25675299    -0.08400
C2164       C  0.00484649  0.02208410  0.25613629    -0.05700
C2165       C  0.99233930  0.52714031  0.24206701     0.00200
C2166       C  0.46653103  0.49470962  0.23654298    -0.08300
C2167       C  0.43387993  0.48979621  0.22432027     0.62100
H2168       H  0.45954953  0.44365699  0.22677882     0.12800
H2169       H  0.02535339  0.04889785  0.26023179     0.12800
C2170       C  0.05134777  0.00415188  0.26414394     0.62300
F2171       F  0.41914639  0.45941267  0.21177171    -0.22800
F2172       F  0.44327115  0.51900365  0.21079680    -0.20200
F2173       F  0.40797208  0.48637599  0.23872488    -0.19800
F2174       F  0.06920638  0.99859028  0.24754469    -0.19900
F2175       F  0.04873295  0.98279400  0.28170238    -0.20200
F2176       F  0.07176857  0.03952462  0.27030266    -0.22900
C2177       C  0.56781162  0.94545892  0.31635637    -0.05700
C2178       C  0.53474695  0.91292894  0.31567492     0.00200
C2179       C  0.51693187  0.89734186  0.33528906    -0.08400
C2180       C  0.53303581  0.91461810  0.35473497    -0.05700
C2181       C  0.56646078  0.94677461  0.35543757     0.00200
C2182       C  0.58386015  0.96284282  0.33577101    -0.08300
C2183       C  0.61954051  0.99750361  0.33514589     0.62100
H2184       H  0.58133199  0.95740782  0.30129993     0.12800
H2185       H  0.51948740  0.90264882  0.36979944     0.12800
C2186       C  0.97748282  0.85040942  0.33988957     0.62300
F2187       F  0.63266053  0.00737005  0.31434721    -0.22800
F2188       F  0.64448512  0.99350974  0.34712311    -0.20200
F2189       F  0.61559805  0.02491952  0.34350938    -0.19800
F2190       F  0.98090266  0.82522956  0.32812650    -0.19900
F2191       F  0.95081664  0.85542318  0.33103806    -0.20200
F2192       F  0.96705708  0.83685472  0.36060970    -0.22900
C2193       C  0.50522419  0.89430955  0.17884190    -0.05700
C2194       C  0.97927095  0.85768745  0.19462644     0.00200
C2195       C  0.95926077  0.82521472  0.18348658    -0.08400
C2196       C  0.96148945  0.82586679  0.16073197    -0.05700
C2197       C  0.98362024  0.85766133  0.14891339     0.00200
C2198       C  0.50686827  0.89448714  0.15622919    -0.08300
C2199       C  0.52561966  0.92988158  0.14395693     0.62100
H2200       H  0.51735221  0.91945635  0.18736360     0.12800
H2201       H  0.94564122  0.80139482  0.15187720     0.12800
C2202       C  0.93666426  0.79011259  0.19555395     0.62300
F2203       F  0.54146899  0.95884787  0.15761709    -0.22800
F2204       F  0.50121449  0.93358100  0.13138666    -0.20200
F2205       F  0.55205802  0.93090011  0.13096075    -0.19800
F2206       F  0.91054344  0.79193096  0.20735818    -0.19900
F2207       F  0.95805960  0.78353806  0.20936914    -0.20200
F2208       F  0.91990512  0.76150991  0.18168296    -0.22900
loop_ 
_geom_bond_atom_site_label_1 
_geom_bond_atom_site_label_2 
_geom_bond_distance 
_geom_bond_site_symmetry_2 
_ccdc_geom_bond_type 
O1           Ni9   1.948       .  S
O1           C11   1.289       .  A
O2           Ni9   1.949       .  S
O2           C12   1.290   1_455  A
O3           Ni9   1.885       .  S
O3         C1117   1.273   1_455  A
O4           Ni9   1.897       .  S
O4           C14   1.275       .  A
O5          Ni10   1.965       .  S
O5         C1118   1.293       .  A
O6          Ni10   1.956       .  S
O6           C13   1.291       .  A
O7          Ni10   1.894       .  S
O7         C1116   1.273       .  A
O8          Ni10   1.875       .  S
O8         C1115   1.270       .  A
Ni9       Ni1114   2.380   1_455  S
Ni10      Ni1113   2.383       .  S
C11        O1112   1.273   1_455  A
C11        C1610   1.484       .  S
C12        O1111   1.275       .  A
C12        C1594   1.502       .  S
C13        O1107   1.269       .  A
C13         C538   1.474       .  S
C14        O1109   1.291   1_455  A
C14         C522   1.504       .  S
O15         Ni23   1.951       .  S
O15          C25   1.290       .  A
O16         Ni23   1.955       .  S
O16          C26   1.291       .  A
O17         Ni23   1.889       .  S
O17          C27   1.271       .  A
O18         Ni23   1.891       .  S
O18          C28   1.273       .  A
O19         Ni24   1.960       .  S
O19          C28   1.292       .  A
O20         Ni24   1.959       .  S
O20          C27   1.292       .  A
O21         Ni24   1.893       .  S
O21          C26   1.275       .  A
O22         Ni24   1.881       .  S
O22          C25   1.272       .  A
Ni23        Ni24   2.380       .  S
C25         C477   1.499       .  S
C26         C458   1.501       .  S
C27         C442   1.481       .  S
C28         C525   1.497       .  S
O29         Ni37   1.967       .  S
O29          C39   1.293       .  A
O30         Ni37   1.967       .  S
O30          C40   1.293       .  A
O31         Ni37   1.880       .  S
O31          C41   1.271       .  A
O32         Ni37   1.887       .  S
O32          C42   1.271       .  A
O33         Ni38   1.949       .  S
O33          C42   1.289       .  A
O34         Ni38   1.943       .  S
O34          C41   1.289       .  A
O35         Ni38   1.883       .  S
O35          C40   1.273       .  A
O36         Ni38   1.881       .  S
O36          C39   1.272       .  A
Ni37        Ni38   2.383       .  S
C39         C509   1.494       .  S
C40         C493   1.505       .  S
C41         C429   1.483       .  S
C42         C413   1.475       .  S
O43         Ni51   1.953       .  S
O43          C53   1.290       .  A
O44         Ni51   1.956       .  S
O44          C54   1.291       .  A
O45         Ni51   1.882       .  S
O45          C55   1.272   1_545  A
O46         Ni51   1.888       .  S
O46          C56   1.274       .  A
O47        Ni604   1.955       .  S
O47          C56   1.290   1_565  A
O48         Ni52   1.951       .  S
O48         C607   1.290       .  A
O49         Ni52   1.897       .  S
O49         C606   1.274       .  A
O50         Ni52   1.880       .  S
O50         C605   1.273       .  A
Ni51       Ni604   2.380   1_545  S
Ni52        O599   1.958       .  S
Ni52       Ni603   2.380       .  S
C53         O602   1.272   1_545  A
C53         C474   1.484       .  S
C54         O601   1.273   1_545  A
C54         C461   1.495   1_545  S
C55         O600   1.290       .  A
C55         C946   1.494       .  S
C56         C410   1.495       .  S
O57         Ni65   1.955       .  S
O57          C67   1.291       .  A
O58         Ni65   1.957       .  S
O58          C68   1.291       .  A
O59         Ni65   1.883       .  S
O59          C69   1.271   1_545  A
O60         Ni65   1.896       .  S
O60          C70   1.275       .  A
O61        Ni618   1.966       .  S
O61          C70   1.293   1_565  A
O62         Ni66   1.961       .  S
O62         C621   1.291       .  A
O63         Ni66   1.898       .  S
O63         C620   1.275       .  A
O64         Ni66   1.887       .  S
O64         C619   1.271       .  A
Ni65       Ni618   2.381   1_545  S
Ni66        O613   1.968       .  S
Ni66       Ni617   2.381       .  S
C67         O616   1.272   1_545  A
C67         C346   1.494       .  S
C68         O615   1.273   1_545  A
C68         C362   1.493   1_545  S
C69         O614   1.292       .  A
C69         C997   1.483       .  S
C70         C378   1.510       .  S
O71         Ni79   1.951       .  S
O71          C81   1.290       .  A
O72         Ni79   1.951       .  S
O72          C82   1.290       .  A
O73         Ni79   1.886       .  S
O73          C83   1.271       .  A
O74         Ni79   1.893       .  S
O74          C84   1.273       .  A
O75         Ni80   1.967       .  S
O75          C84   1.293       .  A
O76         Ni80   1.964       .  S
O76          C83   1.293       .  A
O77         Ni80   1.890       .  S
O77          C82   1.273       .  A
O78         Ni80   1.880       .  S
O78          C81   1.272       .  A
Ni79        Ni80   2.378       .  S
C81         C314   1.500       .  S
C82         C330   1.502       .  S
C83         C298   1.492       .  S
C84         C381   1.504       .  S
O85         Ni93   1.968       .  S
O85          C95   1.293       .  A
O86         Ni93   1.972       .  S
O86          C96   1.295       .  A
O87         Ni93   1.881       .  S
O87          C97   1.271       .  A
O88         Ni93   1.886       .  S
O88          C98   1.272       .  A
O89         Ni94   1.959       .  S
O89          C98   1.292       .  A
O90         Ni94   1.955       .  S
O90          C97   1.291       .  A
O91         Ni94   1.874       .  S
O91          C96   1.270       .  A
O92         Ni94   1.867       .  S
O92          C95   1.269       .  A
Ni93        Ni94   2.378       .  S
C95         C349   1.499       .  S
C96         C365   1.506       .  S
C97         C397   1.487       .  S
C98         C282   1.489       .  S
O99        Ni107   1.950       .  S
O99         C109   1.290       .  A
O100       Ni107   1.952       .  S
O100        C110   1.289       .  A
O101       Ni107   1.889       .  S
O101        C111   1.273       .  A
O102       Ni107   1.896       .  S
O102        C112   1.276       .  A
O103       Ni108   1.955       .  S
O103        C112   1.290       .  A
O104       Ni108   1.951       .  S
O104        C111   1.291       .  A
O105       Ni108   1.887       .  S
O105        C110   1.273       .  A
O106       Ni108   1.878       .  S
O106        C109   1.271       .  A
Ni107      Ni108   2.377       .  S
C109        C317   1.496       .  S
C110        C333   1.488       .  S
C111        C266   1.496       .  S
C112        C285   1.510       .  S
O113       Ni121   1.970       .  S
O113        C123   1.294       .  A
O114       Ni121   1.965       .  S
O114        C124   1.292       .  A
O115       Ni121   1.869       .  S
O115        C125   1.270       .  A
O116       Ni121   1.880       .  S
O116        C126   1.271       .  A
O117       Ni122   1.972       .  S
O117        C126   1.295       .  A
O118       Ni122   1.971       .  S
O118        C125   1.294       .  A
O119       Ni122   1.887       .  S
O119        C124   1.272       .  A
O120       Ni122   1.872       .  S
O120        C123   1.269       .  A
Ni121      Ni122   2.377       .  S
C123        C234   1.492       .  S
C124        C218   1.491       .  S
C125        C269   1.501       .  S
C126        C250   1.513       .  S
O127       Ni135   1.953       .  S
O127        C137   1.291       .  A
O128       Ni135   1.957       .  S
O128        C138   1.291       .  A
O129       Ni135   1.876       .  S
O129        C139   1.269       .  A
O130       Ni135   1.890       .  S
O130        C140   1.272       .  A
O131       Ni136   1.956       .  S
O131        C140   1.291       .  A
O132       Ni136   1.957       .  S
O132        C139   1.291       .  A
O133       Ni136   1.886       .  S
O133        C138   1.273       .  A
O134       Ni136   1.875       .  S
O134        C137   1.271       .  A
Ni135      Ni136   2.381       .  S
C137        C202   1.497       .  S
C138        C186   1.505       .  S
C139        C541   1.478       .  S
C140        C253   1.491       .  S
O141       Ni149   1.963       .  S
O141        C151   1.292       .  A
O142       Ni149   1.962       .  S
O142        C152   1.294       .  A
O143       Ni149   1.881       .  S
O143        C153   1.270       .  A
O144       Ni149   1.883       .  S
O144        C154   1.270       .  A
O145       Ni150   1.971       .  S
O145        C154   1.294       .  A
O146       Ni150   1.968       .  S
O146        C153   1.294       .  A
O147       Ni150   1.890       .  S
O147        C152   1.272       .  A
O148       Ni150   1.877       .  S
O148        C151   1.271       .  A
Ni149      Ni150   2.381       .  S
C151        C237   1.494       .  S
C152        C221   1.501       .  S
C153        C301   1.494       .  S
C154        C170   1.487       .  S
O155       Ni163   1.947       .  S
O155        C165   1.289   1_455  A
O156       Ni163   1.948       .  S
O156        C166   1.289   1_455  A
O157       Ni163   1.877       .  S
O157       C1271   1.270   1_455  A
O158       Ni163   1.890       .  S
O158        C168   1.274       .  A
O159       Ni164   1.960       .  S
O159       C1272   1.292       .  A
O160       Ni164   1.953       .  S
O160        C167   1.290       .  A
O161       Ni164   1.894       .  S
O161       C1270   1.275       .  A
O162       Ni164   1.882       .  S
O162       C1269   1.271       .  A
Ni163     Ni1268   2.381   1_455  S
Ni164     Ni1267   2.378       .  S
C165       O1266   1.272       .  A
C165       C1309   1.479       .  S
C166       O1265   1.276       .  A
C166       C1293   1.510       .  S
C167       O1261   1.270       .  A
C167        C426   1.485       .  S
C168       O1263   1.293   1_455  A
C168        C173   1.508       .  S
C169        C170   1.408       .  A
C169        C174   1.422   1_556  A
C169        H176   1.082       .  S
C170        C171   1.412   1_556  A
C171        C172   1.408       .  A
C171        C178   1.520   1_554  S
C172        C173   1.412       .  A
C172        H177   1.082       .  S
C173        C174   1.424       .  A
C174        C175   1.518   1_455  S
C175        F179   1.385       .  S
C175        F180   1.382       .  S
C175       F1285   1.382       .  S
C178        F182   1.382       .  S
C178        F183   1.384       .  S
C178        F184   1.384   1_556  S
F181       C1279   1.384       .  S
C185        C190   1.409   1_655  A
C185       C1290   1.415       .  A
C185        H192   1.082   1_655  S
C186        C187   1.415       .  A
C186       C1289   1.416       .  A
C187        C188   1.412       .  A
C187        C194   1.519       .  S
C188        C189   1.417       .  A
C188        H193   1.081       .  S
C189       C1270   1.506       .  S
C189       C1294   1.418       .  A
C190       C1293   1.418   1_455  A
C190        C191   1.521       .  S
C191        F195   1.385       .  S
C191        F196   1.383       .  S
C191        F197   1.383       .  S
C194        F198   1.383       .  S
C194        F199   1.383       .  S
C194        F200   1.385       .  S
C201        C202   1.419       .  A
C201       C1862   1.411       .  A
C201       H1312   1.082       .  S
C202        C203   1.412       .  A
C203        C756   1.404       .  A
C203        C210   1.521       .  S
C204        C205   1.412       .  A
C204        C755   1.414   1_545  A
C204        H209   1.084       .  S
C205       C1269   1.481       .  S
C205       C1310   1.407       .  A
C206       C1857   1.403   1_545  A
C206       C1309   1.408   1_455  A
C206        C207   1.522       .  S
C207        F211   1.385       .  S
C207        F212   1.383       .  S
C207        F213   1.381       .  S
H208       C1305   1.083   1_455  S
C210        F214   1.383       .  S
C210        F215   1.383       .  S
C210        F216   1.385       .  S
C217        C218   1.407       .  A
C217        C222   1.408       .  A
C217        H224   1.082       .  S
C218        C219   1.412       .  A
C219        C220   1.417       .  A
C219        C226   1.517       .  S
C220        C221   1.418       .  A
C220        H225   1.084       .  S
C221        C222   1.416       .  A
C222        C223   1.518       .  S
C223        F227   1.384       .  S
C223        F228   1.383       .  S
C223        F229   1.382       .  S
C226        F230   1.384       .  S
C226        F231   1.382       .  S
C226        F232   1.385       .  S
C233        C234   1.409       .  A
C233        C790   1.404       .  A
C233        H240   1.083       .  S
C234        C235   1.415       .  A
C235       C1892   1.418       .  A
C235       C1346   1.515       .  S
C236        C237   1.411   1_565  A
C236       C1891   1.403   1_455  A
C236        H241   1.082   1_565  S
C237       C1342   1.416   1_455  A
C238        C785   1.411   1_545  A
C238       C1341   1.418       .  A
C238        C239   1.519       .  S
C239        F243   1.385       .  S
C239        F244   1.384       .  S
C239        F245   1.383       .  S
C242       C1339   1.516       .  S
C242        F246   1.383       .  S
C242        F248   1.385   1_655  S
C242       F1351   1.380       .  S
F247       C1346   1.382       .  S
C249        C250   1.422       .  A
C249        C254   1.410   1_556  A
C249        H256   1.081       .  S
C250        C251   1.419   1_556  A
C251        C252   1.416       .  A
C251        C258   1.517       .  S
C252        C253   1.411       .  A
C252        H257   1.083       .  S
C253        C254   1.408       .  A
C254        C255   1.520       .  S
C255        F259   1.384   1_554  S
C255        F260   1.384       .  S
C255       F1365   1.382       .  S
C258        F262   1.383       .  S
C258        F263   1.383   1_554  S
C258        F264   1.385       .  S
F261       C1359   1.382   1_554  S
C265        C266   1.417       .  A
C265        C270   1.416       .  A
C265        H272   1.082       .  S
C266        C267   1.414       .  A
C267        C268   1.404       .  A
C267        C274   1.521       .  S
C268        C269   1.415       .  A
C268        H273   1.081       .  S
C269        C270   1.414       .  A
C270        C271   1.516       .  S
C271        F275   1.385       .  S
C271        F276   1.383       .  S
C271        F277   1.381       .  S
C274        F278   1.383       .  S
C274        F279   1.383       .  S
C274        F280   1.385       .  S
C281        C282   1.410       .  A
C281        C286   1.415       .  A
C281        H288   1.081       .  S
C282        C283   1.408       .  A
C283        C284   1.410       .  A
C283        C290   1.518       .  S
C284        C285   1.420       .  A
C284        H289   1.079       .  S
C285        C286   1.422       .  A
C286        C287   1.519       .  S
C287        F291   1.385       .  S
C287        F292   1.383       .  S
C287        F293   1.383       .  S
C290        F846   1.384       .  S
C290        F847   1.382       .  S
C290        F848   1.384       .  S
F294        C842   1.384       .  S
F295        C842   1.382   1_545  S
F296        C842   1.385       .  S
C297        C298   1.414       .  A
C297        C302   1.414       .  A
C297        H304   1.078       .  S
C298        C299   1.412       .  A
C299        C300   1.409       .  A
C299        C306   1.518       .  S
C300        C301   1.412       .  A
C300        H305   1.080       .  S
C301        C302   1.413       .  A
C302        C303   1.517       .  S
C303        F307   1.385       .  S
C303        F308   1.382       .  S
C303        F309   1.383       .  S
C306        F310   1.383       .  S
C306        F311   1.383       .  S
C306        F312   1.385       .  S
C313        C318   1.407       .  A
C313       C1418   1.418       .  A
C313       H1424   1.081       .  S
C314       C1417   1.418   1_455  A
C314        C867   1.415   1_445  A
C315        C866   1.414       .  A
C315       C1420   1.411   1_455  A
C315        C322   1.517       .  S
C316        C317   1.417       .  A
C316       C1419   1.410       .  A
C316        H321   1.082       .  S
C317        C870   1.413       .  A
C318        C869   1.411   1_545  A
C318        C319   1.519       .  S
C319        F323   1.384       .  S
C319        F324   1.383   1_545  S
C319        F325   1.383   1_545  S
H320       C1417   1.082       .  S
C322        F326   1.383       .  S
C322        F327   1.383       .  S
C322        F328   1.385       .  S
C329        C330   1.419       .  A
C329        C334   1.412       .  A
C329        H336   1.082       .  S
C330        C331   1.420       .  A
C331        C332   1.408       .  A
C331        C338   1.519       .  S
C332        C333   1.408       .  A
C332        H337   1.083       .  S
C333        C334   1.410       .  A
C334        C335   1.518       .  S
C335        F339   1.384       .  S
C335        F340   1.383       .  S
C335        F341   1.383       .  S
C338        F342   1.382       .  S
C338        F343   1.381       .  S
C338        F344   1.385       .  S
C345        C346   1.414   1_665  A
C345       C1454   1.410       .  A
C345        H352   1.083       .  S
C346       C2003   1.411       .  A
C347        C348   1.403       .  A
C347       C2002   1.409       .  A
C347       C1458   1.518       .  S
C348        C349   1.418       .  A
C348        H353   1.082       .  S
C349        C902   1.415       .  A
C350       C1449   1.408       .  A
C350        C901   1.415       .  A
C350        C351   1.520       .  S
C351        F355   1.385       .  S
C351        F356   1.383       .  S
C351        F357   1.383       .  S
C354       C1451   1.518   1_455  S
C354        F358   1.383       .  S
C354        F359   1.382       .  S
C354       F1464   1.384   1_455  S
F360       C1458   1.385       .  S
C361        C362   1.409       .  A
C361        C366   1.412       .  A
C361        H368   1.082       .  S
C362        C915   1.410   1_565  A
C363        C364   1.409       .  A
C363        C914   1.417       .  A
C363        C370   1.521       .  S
C364        C365   1.416       .  A
C364        H369   1.082       .  S
C365        C918   1.413       .  A
C366        C917   1.420       .  A
C366        C367   1.520       .  S
C367        F371   1.385       .  S
C367        F372   1.383       .  S
C367        F373   1.384       .  S
C370        F374   1.384       .  S
C370        F375   1.382       .  S
C370        F376   1.385       .  S
C377        C378   1.418       .  A
C377        C382   1.415       .  A
C377        H384   1.082       .  S
C378        C379   1.417       .  A
C379        C380   1.416       .  A
C379        C386   1.518   1_545  S
C380        C381   1.415       .  A
C380        H385   1.082       .  S
C381        C382   1.413       .  A
C382        C383   1.517       .  S
C383        F387   1.385       .  S
C383        F388   1.384       .  S
C383        F389   1.382       .  S
C386        F390   1.383       .  S
C386        F391   1.383       .  S
C386        F392   1.385       .  S
C393        C394   1.412       .  A
C393        C398   1.410       .  A
C393        H400   1.083       .  S
C394        C607   1.485       .  S
C394        C395   1.414       .  A
C395        C396   1.407       .  A
C395        C954   1.519       .  S
C396        C397   1.411       .  A
C396        H401   1.083       .  S
C397        C398   1.413       .  A
C398        C399   1.517       .  S
C399        F403   1.385       .  S
C399        F404   1.382       .  S
C399        F405   1.384       .  S
C402        C947   1.521       .  S
C402        F406   1.383       .  S
C402        F959   1.383       .  S
C402        F960   1.385       .  S
F407        C954   1.383       .  S
F408        C954   1.384       .  S
C409        C410   1.410       .  A
C409        C414   1.404       .  A
C409        H968   1.083       .  S
C410        C411   1.422       .  A
C411        C412   1.416       .  A
C411        C418   1.517   1_545  S
C412        C413   1.404       .  A
C412        H417   1.083       .  S
C413        C414   1.411       .  A
C414        C415   1.521       .  S
C415        F420   1.383       .  S
C415        F971   1.384       .  S
C415        F973   1.383       .  S
H416        C961   1.083       .  S
C418        F422   1.383       .  S
C418        F423   1.383       .  S
C418        F424   1.385       .  S
F419        C967   1.384       .  S
F421        C967   1.383       .  S
C425        C426   1.412       .  A
C425        C430   1.400       .  A
C425        H432   1.082       .  S
C426        C427   1.412       .  A
C427        C428   1.411       .  A
C427        C434   1.518       .  S
C428        C429   1.415       .  A
C428        H433   1.082       .  S
C429        C430   1.411       .  A
C430        C431   1.520       .  S
C431        F435   1.385       .  S
C431        F436   1.383       .  S
C431        F437   1.383       .  S
C434        F439   1.384       .  S
C434        F440   1.385       .  S
C434       F1542   1.383       .  S
F438       C1538   1.383       .  S
C441        C442   1.408       .  A
C441        C446   1.414       .  A
C441        H448   1.080       .  S
C442        C443   1.415       .  A
C443        C996   1.405       .  A
C443        C450   1.516       .  S
C444        C995   1.406       .  A
C444        C997   1.404   1_545  A
C444        H449   1.084       .  S
C445        C621   1.475       .  S
C445        C446   1.413       .  A
C445        C996   1.403       .  A
C446        C447   1.516       .  S
C447        F451   1.385       .  S
C447        F453   1.383       .  S
C447       F1004   1.383       .  S
C450        F455   1.383       .  S
C450        F456   1.385       .  S
C450       F1006   1.380       .  S
F452        C999   1.383       .  S
F454       C1002   1.378   1_565  S
C457        C462   1.412       .  A
C457       C1010   1.420   1_545  A
C457        H464   1.081       .  S
C458        C459   1.420       .  A
C458       C1009   1.415       .  A
C459        C460   1.413       .  A
C459        C466   1.519       .  S
C460       C1013   1.409       .  A
C460        H465   1.083       .  S
C461        C462   1.410   1_565  A
C461       C1012   1.411       .  A
C462        C463   1.518       .  S
C463        F467   1.384       .  S
C463        F468   1.384       .  S
C463        F469   1.383       .  S
C466        F470   1.383       .  S
C466        F471   1.382       .  S
C466        F472   1.385       .  S
C473        C478   1.406       .  A
C473       C1026   1.416       .  A
C473        H480   1.080       .  S
C474        C475   1.410       .  A
C474       C1025   1.410   1_545  A
C475       C1580   1.407       .  A
C475       C1586   1.520       .  S
C476       C1579   1.408   1_455  A
C476       C1029   1.414   1_545  A
C476        H481   1.082       .  S
C477       C1028   1.418       .  A
C477       C1582   1.414   1_455  A
C478       C1581   1.415       .  A
C478        C479   1.521       .  S
C479        F483   1.385       .  S
C479        F484   1.383       .  S
C479        F485   1.382       .  S
C482       C1579   1.519       .  S
C482        F486   1.384       .  S
C482        F488   1.385   1_655  S
C482       F1591   1.383       .  S
F487       C1586   1.383       .  S
C489        C490   1.411       .  A
C489        C494   1.415       .  A
C489        H496   1.083       .  S
C490       C1116   1.493       .  S
C490       C1595   1.410       .  A
C491        C492   1.409   1_455  A
C491       C1594   1.413   1_455  A
C491        C498   1.520       .  S
C492       C1597   1.419       .  A
C492        H497   1.081   1_655  S
C493        C494   1.419       .  A
C493       C1596   1.417       .  A
C494        C495   1.518       .  S
C495        F499   1.385       .  S
C495        F500   1.383       .  S
C495        F501   1.383       .  S
C498        F502   1.384       .  S
C498        F503   1.383       .  S
C498        F504   1.384       .  S
C505        C510   1.412       .  A
C505       C2162   1.414       .  A
C505        H512   1.083       .  S
C506       C1115   1.484       .  S
C506        C507   1.408       .  A
C506       C2161   1.412       .  A
C507        C508   1.406       .  A
C507        C514   1.518       .  S
C508       C1061   1.418       .  A
C508        H513   1.082       .  S
C509       C1060   1.408       .  A
C509       C1614   1.416   1_545  A
C510       C1613   1.416   1_565  A
C510        C511   1.517       .  S
C511        F515   1.385       .  S
C511        F516   1.383       .  S
C511        F517   1.383       .  S
C514        F518   1.383       .  S
C514        F519   1.381       .  S
C514        F520   1.385       .  S
C521        C522   1.417       .  A
C521        C526   1.412       .  A
C521        H528   1.081       .  S
C522        C523   1.416       .  A
C523        C524   1.413       .  A
C523       C1634   1.518   1_455  S
C524        C525   1.413       .  A
C524        H529   1.083       .  S
C525        C526   1.412       .  A
C526        C527   1.518       .  S
C527        F531   1.385       .  S
C527        F532   1.383       .  S
C527        F533   1.383       .  S
C530       C1627   1.516       .  S
C530        F534   1.383       .  S
C530        F535   1.383       .  S
C530        F536   1.385       .  S
C537        C542   1.408       .  A
C537       C1642   1.415   1_455  A
C537        H544   1.081       .  S
C538        C539   1.409       .  A
C538       C1641   1.407       .  A
C539        C540   1.409       .  A
C539        C546   1.515       .  S
C540        C541   1.411       .  A
C540        H545   1.083       .  S
C541       C1646   1.414       .  A
C542       C1645   1.414   1_455  A
C542        C543   1.519       .  S
C543        F547   1.385       .  S
C543        F548   1.383       .  S
C543        F549   1.384       .  S
C546        F550   1.383       .  S
C546        F551   1.383       .  S
C546        F552   1.384       .  S
O553       Ni561   1.947       .  S
O553        C563   1.290   1_455  A
O554       Ni561   1.944       .  S
O554        C564   1.288   1_455  A
O555       Ni561   1.878       .  S
O555       C1669   1.271   1_455  A
O556       Ni561   1.887       .  S
O556        C566   1.273       .  A
O557       Ni562   1.964       .  S
O557       C1670   1.293       .  A
O558       Ni562   1.957       .  S
O558        C565   1.291       .  A
O559       Ni562   1.895       .  S
O559       C1668   1.273       .  A
O560       Ni562   1.890       .  S
O560       C1667   1.271       .  A
Ni561     Ni1666   2.380   1_455  S
Ni562     Ni1665   2.383       .  S
C563       O1664   1.272       .  A
C563       C2162   1.490       .  S
C564       O1663   1.273       .  A
C564       C2146   1.495       .  S
C565       O1659   1.270       .  A
C565       C1090   1.478       .  S
C566       O1661   1.293   1_455  A
C566       C1074   1.505       .  S
O567       Ni575   1.958       .  S
O567        C577   1.292       .  A
O568       Ni575   1.961       .  S
O568        C578   1.292       .  A
O569       Ni575   1.894       .  S
O569        C579   1.273       .  A
O570       Ni575   1.901       .  S
O570        C580   1.275       .  A
O571       Ni576   1.953       .  S
O571        C580   1.290       .  A
O572       Ni576   1.953   1_545  S
O572        C579   1.290   1_545  A
O573       Ni576   1.892       .  S
O573        C578   1.274       .  A
O574       Ni576   1.877       .  S
O574        C577   1.271       .  A
Ni575      Ni576   2.379       .  S
C577       C1029   1.493       .  S
C578       C1010   1.511       .  S
C579        C994   1.487       .  S
C580       C1077   1.501       .  S
O581       Ni589   1.963       .  S
O581        C591   1.293       .  A
O582       Ni589   1.967       .  S
O582        C592   1.294       .  A
O583       Ni589   1.871       .  S
O583        C593   1.269       .  A
O584       Ni589   1.884       .  S
O584        C594   1.271       .  A
O585       Ni590   1.966       .  S
O585        C594   1.293       .  A
O586       Ni590   1.961       .  S
O586        C593   1.292       .  A
O587       Ni590   1.891       .  S
O587        C592   1.273       .  A
O588       Ni590   1.873       .  S
O588        C591   1.270       .  A
Ni589      Ni590   2.376       .  S
C591       C1061   1.500       .  S
C592       C1045   1.515       .  S
C593        C981   1.487       .  S
C594        C965   1.500       .  S
O595       Ni603   1.954       .  S
O595        C605   1.290       .  A
O596       Ni603   1.952       .  S
O596        C606   1.290       .  A
O597       Ni603   1.881       .  S
O597        C607   1.272       .  A
O598       Ni603   1.891       .  S
O598        C608   1.274       .  A
O599        C608   1.291       .  A
O600       Ni604   1.948       .  S
O601       Ni604   1.889       .  S
O602       Ni604   1.880       .  S
C605       C1026   1.502       .  S
C606       C1013   1.490       .  S
C608        C962   1.502       .  S
O609       Ni617   1.958       .  S
O609        C619   1.291       .  A
O610       Ni617   1.954       .  S
O610        C620   1.291       .  A
O611       Ni617   1.876       .  S
O611        C621   1.269       .  A
O612       Ni617   1.890       .  S
O612        C622   1.273       .  A
O613        C622   1.294       .  A
O614       Ni618   1.959       .  S
O615       Ni618   1.893       .  S
O616       Ni618   1.880       .  S
C619        C898   1.479       .  S
C620        C914   1.510       .  S
C622        C930   1.512       .  S
O623       Ni631   1.960       .  S
O623        C633   1.291       .  A
O624       Ni631   1.961       .  S
O624        C634   1.292       .  A
O625       Ni631   1.888       .  S
O625        C635   1.272       .  A
O626       Ni631   1.897       .  S
O626        C636   1.274       .  A
O627       Ni632   1.962       .  S
O627        C636   1.292       .  A
O628       Ni632   1.955       .  S
O628        C635   1.291       .  A
O629       Ni632   1.883       .  S
O629        C634   1.271       .  A
O630       Ni632   1.865       .  S
O630        C633   1.270       .  A
Ni631      Ni632   2.382       .  S
C633        C866   1.494       .  S
C634        C882   1.489       .  S
C635        C850   1.485       .  S
C636        C933   1.501       .  S
O637       Ni645   1.956       .  S
O637        C647   1.291       .  A
O638       Ni645   1.954       .  S
O638        C648   1.291       .  A
O639       Ni645   1.873       .  S
O639        C649   1.270       .  A
O640       Ni645   1.879       .  S
O640        C650   1.271       .  A
O641       Ni646   1.957   1_565  S
O641        C650   1.291       .  A
O642       Ni646   1.956       .  S
O642        C649   1.291   1_545  A
O643       Ni646   1.898       .  S
O643        C648   1.275   1_545  A
O644       Ni646   1.881       .  S
O644        C647   1.272   1_545  A
Ni645      Ni646   2.378   1_565  S
C647        C901   1.502       .  S
C648        C917   1.504       .  S
C649        C949   1.494       .  S
C650        C834   1.487       .  S
O651       Ni659   1.955       .  S
O651        C661   1.291       .  A
O652       Ni659   1.952       .  S
O652        C662   1.290       .  A
O653       Ni659   1.875       .  S
O653        C663   1.269       .  A
O654       Ni659   1.880       .  S
O654        C664   1.272       .  A
O655       Ni660   1.957       .  S
O655        C664   1.291       .  A
O656       Ni660   1.954       .  S
O656        C663   1.291       .  A
O657       Ni660   1.896       .  S
O657        C662   1.275       .  A
O658       Ni660   1.882       .  S
O658        C661   1.272       .  A
Ni659      Ni660   2.380       .  S
C661        C869   1.493       .  S
C662        C885   1.504       .  S
C663        C818   1.474       .  S
C664        C837   1.500       .  S
O665       Ni673   1.955       .  S
O665        C675   1.291       .  A
O666       Ni673   1.951       .  S
O666        C676   1.290       .  A
O667       Ni673   1.867       .  S
O667        C677   1.267       .  A
O668       Ni673   1.879       .  S
O668        C678   1.272       .  A
O669       Ni674   1.967       .  S
O669        C678   1.293       .  A
O670       Ni674   1.956       .  S
O670        C677   1.291       .  A
O671       Ni674   1.898       .  S
O671        C676   1.274       .  A
O672       Ni674   1.882       .  S
O672        C675   1.272       .  A
Ni673      Ni674   2.382       .  S
C675        C786   1.489       .  S
C676        C770   1.494       .  S
C677        C821   1.469       .  S
C678        C802   1.509       .  S
O679       Ni687   1.965       .  S
O679        C689   1.292       .  A
O680       Ni687   1.967       .  S
O680        C690   1.294       .  A
O681       Ni687   1.892       .  S
O681        C691   1.273       .  A
O682       Ni687   1.902       .  S
O682        C692   1.275       .  A
O683       Ni688   1.949       .  S
O683        C692   1.290       .  A
O684       Ni688   1.949       .  S
O684        C691   1.289       .  A
O685       Ni688   1.879       .  S
O685        C690   1.271       .  A
O686       Ni688   1.864       .  S
O686        C689   1.270       .  A
Ni687      Ni688   2.379       .  S
C689        C754   1.502       .  S
C690        C738   1.507       .  S
C691       C1093   1.480       .  S
C692        C805   1.493       .  S
O693       Ni701   1.963       .  S
O693        C703   1.292       .  A
O694       Ni701   1.964       .  S
O694        C704   1.293       .  A
O695       Ni701   1.884       .  S
O695        C705   1.272       .  A
O696       Ni701   1.889       .  S
O696        C706   1.273       .  A
O697       Ni702   1.962       .  S
O697        C706   1.292       .  A
O698       Ni702   1.957       .  S
O698        C705   1.291       .  A
O699       Ni702   1.886       .  S
O699        C704   1.273       .  A
O700       Ni702   1.874       .  S
O700        C703   1.271       .  A
Ni701      Ni702   2.377       .  S
C703        C789   1.496   1_455  S
C704        C773   1.508       .  S
C705        C853   1.487       .  S
C706        C722   1.507       .  S
O707       Ni715   1.970       .  S
O707        C717   1.294   1_455  A
O708       Ni715   1.969       .  S
O708        C718   1.295   1_455  A
O709       Ni715   1.872       .  S
O709       C1823   1.268   1_455  A
O710       Ni715   1.880       .  S
O710        C720   1.271       .  A
O711       Ni716   1.961       .  S
O711       C1824   1.292       .  A
O712       Ni716   1.959       .  S
O712        C719   1.292       .  A
O713       Ni716   1.881       .  S
O713       C1822   1.270       .  A
O714       Ni716   1.862       .  S
O714       C1821   1.269       .  A
Ni715     Ni1820   2.380   1_455  S
Ni716     Ni1819   2.380       .  S
C717       O1818   1.268       .  A
C717       C1861   1.486       .  S
C718       O1817   1.270       .  A
C718       C1845   1.506       .  S
C719       O1813   1.270       .  A
C719        C978   1.489       .  S
C720       O1815   1.293   1_455  A
C720        C725   1.491       .  S
C721        C722   1.421       .  A
C721        C726   1.413   1_556  A
C721        H728   1.083       .  S
C722        C723   1.418       .  A
C723        C724   1.412   1_556  A
C723        C730   1.518       .  S
C724        C725   1.411       .  A
C724        H729   1.084       .  S
C725        C726   1.408       .  A
C726        C727   1.517   1_455  S
C727        F731   1.384   1_554  S
C727        F732   1.384       .  S
C727       F1837   1.383       .  S
C730        F734   1.384       .  S
C730        F735   1.383       .  S
C730        F736   1.385   1_556  S
F733       C1831   1.382       .  S
C737       C1842   1.421   1_455  A
C737        C742   1.412       .  A
C737        H744   1.080       .  S
C738       C1841   1.419       .  A
C738        C739   1.418       .  A
C739        C740   1.414       .  A
C739        C746   1.519       .  S
C740        C741   1.414       .  A
C740        H745   1.081       .  S
C741       C1822   1.497       .  S
C741       C1846   1.410       .  A
C742       C1845   1.412   1_455  A
C742        C743   1.518       .  S
C743        F747   1.385       .  S
C743        F748   1.384       .  S
C743        F749   1.383       .  S
C746        F750   1.383       .  S
C746        F751   1.383       .  S
C746        F752   1.385       .  S
C753        C754   1.418       .  A
C753       C1310   1.400   1_565  A
C753       H1864   1.081       .  S
C754        C755   1.418       .  A
C755        C762   1.518       .  S
C756        C757   1.419       .  A
C756        H761   1.081       .  S
C757       C1821   1.500       .  S
C757       C1862   1.413       .  A
C758       C1305   1.416   1_455  A
C758       C1861   1.413   1_455  A
C758        C759   1.514       .  S
C759        F763   1.385       .  S
C759        F764   1.382       .  S
C759        F765   1.382       .  S
H760       C1857   1.081       .  S
C762        F766   1.383       .  S
C762        F767   1.383       .  S
C762        F768   1.385       .  S
C769        C770   1.411       .  A
C769        C774   1.414       .  A
C769        H776   1.083       .  S
C770        C771   1.410       .  A
C771        C772   1.411       .  A
C771        C778   1.518       .  S
C772        C773   1.418       .  A
C772        H777   1.082       .  S
C773        C774   1.420       .  A
C774        C775   1.518       .  S
C775        F779   1.385       .  S
C775        F780   1.383       .  S
C775        F781   1.383       .  S
C778        F782   1.384       .  S
C778        F783   1.382       .  S
C778        F784   1.384       .  S
C785        C786   1.413       .  A
C785        H792   1.083       .  S
C786        C787   1.410       .  A
C787       C1340   1.406       .  A
C787       C1898   1.518       .  S
C788       C1339   1.404   1_455  A
C788        C789   1.414   1_455  A
C788        H793   1.082       .  S
C789       C1894   1.416       .  A
C790       C1893   1.412       .  A
C790        C791   1.515       .  S
C791        F795   1.385       .  S
C791        F796   1.383       .  S
C791        F797   1.379       .  S
C794       C1891   1.517       .  S
C794        F798   1.382       .  S
C794       F1903   1.379       .  S
C794        F800   1.385   1_655  S
F799       C1898   1.382       .  S
C801        C802   1.418       .  A
C801        C806   1.407   1_556  A
C801        H808   1.081       .  S
C802        C803   1.418   1_556  A
C803        C804   1.419       .  A
C803        C810   1.517       .  S
C804        C805   1.414       .  A
C804        H809   1.083       .  S
C805        C806   1.409       .  A
C806        C807   1.520       .  S
C807        F811   1.384   1_554  S
C807        F812   1.384       .  S
C807       F1917   1.382       .  S
C810        F814   1.383   1_554  S
C810        F815   1.383   1_554  S
C810        F816   1.384       .  S
F813       C1911   1.383   1_455  S
C817        C818   1.410       .  A
C817        C822   1.409       .  A
C817        H824   1.080       .  S
C818        C819   1.413       .  A
C819        C820   1.403       .  A
C819        C826   1.515       .  S
C820        C821   1.405       .  A
C820        H825   1.083       .  S
C821        C822   1.410       .  A
C822        C823   1.515       .  S
C823        F827   1.385       .  S
C823        F828   1.383       .  S
C823        F829   1.383       .  S
C826        F830   1.379       .  S
C826        F831   1.383       .  S
C826        F832   1.385       .  S
C833        C834   1.412       .  A
C833        C838   1.410       .  A
C833        H840   1.083       .  S
C834        C835   1.407       .  A
C835        C836   1.408       .  A
C835        C842   1.518       .  S
C836        C837   1.419       .  A
C836        H841   1.083       .  S
C837        C838   1.416       .  A
C838        C839   1.519       .  S
C839        F843   1.385       .  S
C839        F844   1.384       .  S
C839        F845   1.383       .  S
C849        C850   1.412       .  A
C849        C854   1.413       .  A
C849        H856   1.083       .  S
C850        C851   1.413       .  A
C851        C852   1.406       .  A
C851        C858   1.519       .  S
C852        C853   1.409       .  A
C852        H857   1.080       .  S
C853        C854   1.413       .  A
C854        C855   1.516       .  S
C855        F859   1.385       .  S
C855        F860   1.382       .  S
C855        F861   1.384       .  S
C858        F862   1.382       .  S
C858        F863   1.382       .  S
C858        F864   1.385       .  S
C865       C1970   1.418       .  A
C865        C870   1.406       .  A
C865       H1976   1.081       .  S
C866       C1969   1.414   1_455  A
C867       C1972   1.407       .  A
C867        C874   1.521   1_655  S
C868       C1971   1.411       .  A
C868        C869   1.414       .  A
C868        H873   1.083       .  S
C870        C871   1.521       .  S
C871        F875   1.385       .  S
C871        F876   1.383       .  S
C871        F877   1.384       .  S
H872       C1969   1.083       .  S
C874        F878   1.383       .  S
C874        F879   1.384       .  S
C874        F880   1.385       .  S
C881        C882   1.409       .  A
C881        C886   1.411       .  A
C881        H888   1.084       .  S
C882        C883   1.408       .  A
C883        C884   1.413       .  A
C883        C890   1.516       .  S
C884        C885   1.418       .  A
C884        H889   1.082       .  S
C885        C886   1.421       .  A
C886        C887   1.520       .  S
C887        F891   1.385       .  S
C887        F892   1.383       .  S
C887        F893   1.382       .  S
C890        F894   1.383       .  S
C890        F895   1.383       .  S
C890        F896   1.384       .  S
C897        C898   1.408   1_655  A
C897       C2006   1.417       .  A
C897        H904   1.081   1_655  S
C898       C1451   1.414   1_455  A
C899       C1450   1.415       .  A
C899        C900   1.411       .  A
C899       C2010   1.519       .  S
C900        C901   1.418   1_545  A
C900        H905   1.081       .  S
C902       C2001   1.413       .  A
C902        C903   1.517       .  S
C903        F907   1.385       .  S
C903        F908   1.383       .  S
C903        F909   1.383       .  S
C906       C2003   1.519       .  S
C906        F910   1.384       .  S
C906        F911   1.383       .  S
C906       F2016   1.385       .  S
F912       C2010   1.385       .  S
C913        C914   1.421       .  A
C913        C918   1.416       .  A
C913        H920   1.082       .  S
C915        C916   1.414       .  A
C915        C922   1.517       .  S
C916        C917   1.417   1_545  A
C916        H921   1.082       .  S
C918        C919   1.517       .  S
C919        F923   1.384       .  S
C919        F924   1.384       .  S
C919        F925   1.382       .  S
C922        F926   1.384       .  S
C922        F927   1.382       .  S
C922        F928   1.384       .  S
C929        C930   1.420       .  A
C929        C934   1.413       .  A
C929        H936   1.082       .  S
C930        C931   1.418       .  A
C931        C932   1.417       .  A
C931        C938   1.517       .  S
C932        C933   1.414       .  A
C932        H937   1.083       .  S
C933        C934   1.411       .  A
C934        C935   1.517       .  S
C935        F939   1.385       .  S
C935        F940   1.383       .  S
C935        F941   1.382       .  S
C938        F942   1.383       .  S
C938        F943   1.383       .  S
C938        F944   1.385       .  S
C945        C946   1.417   1_545  A
C945        C950   1.410       .  A
C945        H952   1.082       .  S
C946        C947   1.414       .  A
C947        C948   1.405       .  A
C948        C949   1.415       .  A
C948        H953   1.081       .  S
C949        C950   1.412   1_565  A
C950        C951   1.518       .  S
C951        F955   1.385       .  S
C951        F956   1.383       .  S
C951        F957   1.383       .  S
C954        F958   1.382       .  S
C961        C962   1.416       .  A
C961        C966   1.412       .  A
C962        C963   1.415       .  A
C963        C964   1.414       .  A
C963        C970   1.519       .  S
C964        C965   1.416       .  A
C964        H969   1.083       .  S
C965        C966   1.412       .  A
C966        C967   1.517       .  S
C967        F972   1.383       .  S
C970        F974   1.383       .  S
C970        F975   1.383       .  S
C970        F976   1.385       .  S
C977        C978   1.414       .  A
C977        C982   1.411       .  A
C977        H984   1.082       .  S
C978        C979   1.411       .  A
C979        C980   1.407       .  A
C979        C986   1.515       .  S
C980        C981   1.412       .  A
C980        H985   1.082       .  S
C981        C982   1.413       .  A
C982        C983   1.519       .  S
C983        F987   1.385       .  S
C983        F988   1.383       .  S
C983        F989   1.383       .  S
C986       F2094   1.383       .  S
C986        F991   1.382       .  S
C986        F992   1.384       .  S
F990       C2090   1.382       .  S
C993        C994   1.410       .  A
C993        C998   1.413       .  A
C993       H1000   1.083       .  S
C994        C995   1.417   1_565  A
C995       C1002   1.514       .  S
C996       H1001   1.082       .  S
C997        C998   1.412       .  A
C998        C999   1.512       .  S
C999       F1003   1.384       .  S
C999       F1005   1.382       .  S
C1002      F1007   1.382       .  S
C1002      F1008   1.385       .  S
C1009      C1014   1.411       .  A
C1009      H1016   1.083       .  S
C1010      C1011   1.421       .  A
C1011      C1012   1.413       .  A
C1011      C1018   1.519       .  S
C1012      H1017   1.083       .  S
C1013      C1014   1.410       .  A
C1014      C1015   1.516       .  S
C1015      F1019   1.384       .  S
C1015      F1020   1.383       .  S
C1015      F1021   1.382       .  S
C1018      F1022   1.383       .  S
C1018      F1023   1.383       .  S
C1018      F1024   1.385       .  S
C1025      C1030   1.409       .  A
C1025      H1032   1.083       .  S
C1026      C1027   1.417       .  A
C1027      C2132   1.412       .  A
C1027      C2138   1.519       .  S
C1028      C2131   1.411   1_455  A
C1028      H1033   1.081       .  S
C1029      C2134   1.410   1_455  A
C1030      C2133   1.417       .  A
C1030      C1031   1.518       .  S
C1031      F1035   1.385       .  S
C1031      F1036   1.384       .  S
C1031      F1037   1.383       .  S
C1034      C2131   1.519       .  S
C1034      F1038   1.384       .  S
C1034      F2143   1.383       .  S
C1034      F1040   1.385   1_655  S
F1039      C2138   1.383       .  S
C1041      C1042   1.412       .  A
C1041      C1046   1.416       .  A
C1041      H1048   1.082       .  S
C1042      C1668   1.500       .  S
C1042      C2147   1.411       .  A
C1043      C2146   1.419   1_455  A
C1043      C1044   1.407       .  A
C1043      C1050   1.520       .  S
C1044      C2149   1.406   1_455  A
C1044      H1049   1.084       .  S
C1045      C2148   1.420       .  A
C1045      C1046   1.421       .  A
C1046      C1047   1.518       .  S
C1047      F1051   1.385       .  S
C1047      F1052   1.383       .  S
C1047      F1053   1.383       .  S
C1050      F1054   1.383       .  S
C1050      F1055   1.383       .  S
C1050      F1056   1.385       .  S
C1057      C1610   1.410   1_655  A
C1057      C1062   1.410       .  A
C1057      H1064   1.083       .  S
C1058      C1667   1.489       .  S
C1058      C1609   1.412       .  A
C1058      C1059   1.413       .  A
C1059      C1060   1.405   1_565  A
C1059      C1066   1.514       .  S
C1060      H1065   1.083       .  S
C1061      C2166   1.416       .  A
C1062      C2165   1.417       .  A
C1062      C1063   1.518       .  S
C1063      F1067   1.384       .  S
C1063      F1068   1.384       .  S
C1063      F1069   1.383       .  S
C1066      F1070   1.382       .  S
C1066      F1071   1.380       .  S
C1066      F1072   1.385   1_565  S
C1073      C1074   1.416       .  A
C1073      C1078   1.410       .  A
C1073      H1080   1.081       .  S
C1074      C1075   1.416       .  A
C1075      C1076   1.416       .  A
C1075      C2186   1.518   1_455  S
C1076      C1077   1.415       .  A
C1076      H1081   1.081       .  S
C1077      C1078   1.413       .  A
C1078      C1079   1.519       .  S
C1079      F1083   1.385       .  S
C1079      F1084   1.384       .  S
C1079      F1085   1.382   1_565  S
C1082      C2179   1.517       .  S
C1082      F1086   1.384       .  S
C1082      F1087   1.382       .  S
C1082      F1088   1.384       .  S
C1089      C2194   1.409   1_455  A
C1089      C1094   1.406       .  A
C1089      H1096   1.084       .  S
C1090      C2193   1.404       .  A
C1090      C1091   1.413       .  A
C1091      C1092   1.412       .  A
C1091      C1098   1.516       .  S
C1092      C1093   1.409       .  A
C1092      H1097   1.083       .  S
C1093      C2198   1.414       .  A
C1094      C2197   1.414   1_455  A
C1094      C1095   1.518       .  S
C1095      F1099   1.385       .  S
C1095      F1100   1.381       .  S
C1095      F1101   1.382       .  S
C1098      F1102   1.382       .  S
C1098      F1103   1.384       .  S
C1098      F1104   1.385       .  S
O1105     Ni1113   1.959       .  S
O1105      C1115   1.292       .  A
O1106     Ni1113   1.957       .  S
O1106      C1116   1.291       .  A
O1107     Ni1113   1.874       .  S
O1108     Ni1113   1.881       .  S
O1108      C1118   1.272       .  A
O1109     Ni1114   1.957       .  S
O1110     Ni1114   1.947       .  S
O1110      C1117   1.289       .  A
O1111     Ni1114   1.901       .  S
O1112     Ni1114   1.885       .  S
C1117      C1642   1.492       .  S
C1118      C1626   1.507       .  S
O1119     Ni1127   1.945       .  S
O1119      C1129   1.289       .  A
O1120     Ni1127   1.950       .  S
O1120      C1130   1.289       .  A
O1121     Ni1127   1.888       .  S
O1121      C1131   1.273       .  A
O1122     Ni1127   1.892       .  S
O1122      C1132   1.273       .  A
O1123     Ni1128   1.948       .  S
O1123      C1132   1.289       .  A
O1124     Ni1128   1.945       .  S
O1124      C1131   1.289       .  A
O1125     Ni1128   1.900       .  S
O1125      C1130   1.276       .  A
O1126     Ni1128   1.891       .  S
O1126      C1129   1.275       .  A
Ni1127    Ni1128   2.381       .  S
C1129      C1581   1.498       .  S
C1130      C1562   1.504       .  S
C1131      C1546   1.484       .  S
C1132      C1629   1.484       .  S
O1133     Ni1141   1.969       .  S
O1133      C1143   1.294       .  A
O1134     Ni1141   1.969       .  S
O1134      C1144   1.293       .  A
O1135     Ni1141   1.885       .  S
O1135      C1145   1.270       .  A
O1136     Ni1141   1.888       .  S
O1136      C1146   1.273       .  A
O1137     Ni1142   1.960       .  S
O1137      C1146   1.292       .  A
O1138     Ni1142   1.957       .  S
O1138      C1145   1.292       .  A
O1139     Ni1142   1.882       .  S
O1139      C1144   1.272       .  A
O1140     Ni1142   1.863       .  S
O1140      C1143   1.268       .  A
Ni1141    Ni1142   2.375       .  S
C1143      C1613   1.505       .  S
C1144      C1597   1.514       .  S
C1145      C1533   1.481       .  S
C1146      C1517   1.504       .  S
O1147     Ni1155   1.956       .  S
O1147      C1157   1.291   1_545  A
O1148     Ni1155   1.955       .  S
O1148      C1158   1.291   1_545  A
O1149     Ni1155   1.876       .  S
O1149      C1159   1.270   1_545  A
O1150     Ni1155   1.886       .  S
O1150      C1160   1.272       .  A
O1151     Ni1708   1.962       .  S
O1151      C1160   1.292   1_565  A
O1152     Ni1156   1.945       .  S
O1152      C1711   1.289       .  A
O1153     Ni1156   1.898       .  S
O1153      C1710   1.275       .  A
O1154     Ni1156   1.877       .  S
O1154      C1709   1.273       .  A
Ni1155    Ni1708   2.382   1_545  S
Ni1156     O1703   1.948       .  S
Ni1156    Ni1707   2.382       .  S
C1157      O1706   1.272       .  A
C1157      C1578   1.503       .  S
C1158      O1705   1.272       .  A
C1158      C1565   1.485       .  S
C1159      O1704   1.291       .  A
C1159      C2050   1.479       .  S
C1160      C1514   1.497       .  S
O1161     Ni1169   1.962       .  S
O1161      C1171   1.292       .  A
O1162     Ni1169   1.961       .  S
O1162      C1172   1.292       .  A
O1163     Ni1169   1.880       .  S
O1163      C1173   1.271   1_545  A
O1164     Ni1169   1.882       .  S
O1164      C1174   1.272       .  A
O1165     Ni1722   1.965       .  S
O1165      C1174   1.292   1_565  A
O1166     Ni1170   1.957       .  S
O1166      C1725   1.291       .  A
O1167     Ni1170   1.897       .  S
O1167      C1724   1.275       .  A
O1168     Ni1170   1.881       .  S
O1168      C1723   1.271       .  A
Ni1169    Ni1722   2.379   1_545  S
Ni1170     O1717   1.967       .  S
Ni1170    Ni1721   2.379       .  S
C1171      O1720   1.271   1_545  A
C1171      C1450   1.504       .  S
C1172      O1719   1.271   1_545  A
C1172      C1466   1.489   1_545  S
C1173      O1718   1.293       .  A
C1173      C2101   1.499       .  S
C1174      C1482   1.494       .  S
O1175     Ni1183   1.953       .  S
O1175      C1185   1.290       .  A
O1176     Ni1183   1.953       .  S
O1176      C1186   1.290       .  A
O1177     Ni1183   1.882       .  S
O1177      C1187   1.272       .  A
O1178     Ni1183   1.892       .  S
O1178      C1188   1.274       .  A
O1179     Ni1184   1.953       .  S
O1179      C1188   1.290       .  A
O1180     Ni1184   1.950       .  S
O1180      C1187   1.289       .  A
O1181     Ni1184   1.895       .  S
O1181      C1186   1.275       .  A
O1182     Ni1184   1.880       .  S
O1182      C1185   1.273       .  A
Ni1183    Ni1184   2.376       .  S
C1185      C1418   1.503       .  S
C1186      C1434   1.505       .  S
C1187      C1402   1.486       .  S
C1188      C1485   1.503       .  S
O1189     Ni1197   1.961       .  S
O1189      C1199   1.292       .  A
O1190     Ni1197   1.962       .  S
O1190      C1200   1.292       .  A
O1191     Ni1197   1.877       .  S
O1191      C1201   1.271       .  A
O1192     Ni1197   1.880       .  S
O1192      C1202   1.272       .  A
O1193     Ni1198   1.953       .  S
O1193      C1202   1.291       .  A
O1194     Ni1198   1.948       .  S
O1194      C1201   1.289       .  A
O1195     Ni1198   1.892       .  S
O1195      C1200   1.273       .  A
O1196     Ni1198   1.882       .  S
O1196      C1199   1.271       .  A
Ni1197    Ni1198   2.384       .  S
C1199      C1453   1.480       .  S
C1200      C1469   1.497       .  S
C1201      C1501   1.476       .  S
C1202      C1386   1.493       .  S
O1203     Ni1211   1.958       .  S
O1203      C1213   1.292       .  A
O1204     Ni1211   1.957       .  S
O1204      C1214   1.291       .  A
O1205     Ni1211   1.882       .  S
O1205      C1215   1.271       .  A
O1206     Ni1211   1.884       .  S
O1206      C1216   1.272       .  A
O1207     Ni1212   1.957       .  S
O1207      C1216   1.292       .  A
O1208     Ni1212   1.952       .  S
O1208      C1215   1.291       .  A
O1209     Ni1212   1.887       .  S
O1209      C1214   1.272       .  A
O1210     Ni1212   1.883       .  S
O1210      C1213   1.270       .  A
Ni1211    Ni1212   2.383       .  S
C1213      C1421   1.486       .  S
C1214      C1437   1.490       .  S
C1215      C1370   1.490       .  S
C1216      C1389   1.493       .  S
O1217     Ni1225   1.955       .  S
O1217      C1227   1.291       .  A
O1218     Ni1225   1.948       .  S
O1218      C1228   1.289       .  A
O1219     Ni1225   1.871       .  S
O1219      C1229   1.270       .  A
O1220     Ni1225   1.875       .  S
O1220      C1230   1.271       .  A
O1221     Ni1226   1.966       .  S
O1221      C1230   1.293       .  A
O1222     Ni1226   1.959       .  S
O1222      C1229   1.291       .  A
O1223     Ni1226   1.894       .  S
O1223      C1228   1.274       .  A
O1224     Ni1226   1.882       .  S
O1224      C1227   1.271       .  A
Ni1225    Ni1226   2.383       .  S
C1227      C1338   1.482       .  S
C1228      C1322   1.488       .  S
C1229      C1373   1.487       .  S
C1230      C1354   1.499       .  S
O1231     Ni1239   1.959       .  S
O1231      C1241   1.292       .  A
O1232     Ni1239   1.964       .  S
O1232      C1242   1.292       .  A
O1233     Ni1239   1.878       .  S
O1233      C1243   1.272       .  A
O1234     Ni1239   1.894       .  S
O1234      C1244   1.273       .  A
O1235     Ni1240   1.952       .  S
O1235      C1244   1.291       .  A
O1236     Ni1240   1.949       .  S
O1236      C1243   1.289       .  A
O1237     Ni1240   1.885       .  S
O1237      C1242   1.273       .  A
O1238     Ni1240   1.883       .  S
O1238      C1241   1.270       .  A
Ni1239    Ni1240   2.379       .  S
C1241      C1306   1.480       .  S
C1242      C1290   1.508       .  S
C1243      C1645   1.494       .  S
C1244      C1357   1.495       .  S
O1245     Ni1253   1.952       .  S
O1245      C1255   1.290       .  A
O1246     Ni1253   1.953       .  S
O1246      C1256   1.290       .  A
O1247     Ni1253   1.883       .  S
O1247      C1257   1.272       .  A
O1248     Ni1253   1.885       .  S
O1248      C1258   1.271       .  A
O1249     Ni1254   1.952       .  S
O1249      C1258   1.289       .  A
O1250     Ni1254   1.948       .  S
O1250      C1257   1.289       .  A
O1251     Ni1254   1.887       .  S
O1251      C1256   1.273       .  A
O1252     Ni1254   1.883       .  S
O1252      C1255   1.273       .  A
Ni1253    Ni1254   2.382       .  S
C1255      C1341   1.500       .  S
C1256      C1325   1.498       .  S
C1257      C1405   1.488       .  S
C1258      C1274   1.475       .  S
O1259     Ni1267   1.947       .  S
O1259      C1269   1.290       .  A
O1260     Ni1267   1.945       .  S
O1260      C1270   1.288       .  A
O1261     Ni1267   1.866       .  S
O1262     Ni1267   1.881       .  S
O1262      C1272   1.272       .  A
O1263     Ni1268   1.969       .  S
O1264     Ni1268   1.959       .  S
O1264      C1271   1.291       .  A
O1265     Ni1268   1.902       .  S
O1266     Ni1268   1.879       .  S
C1271      C1530   1.476       .  S
C1272      C1277   1.504       .  S
C1273      C1274   1.405       .  A
C1273      C1278   1.415   1_556  A
C1273      H1280   1.083       .  S
C1274      C1275   1.407       .  A
C1275      C1276   1.406   1_556  A
C1275      C1282   1.519       .  S
C1276      C1277   1.417       .  A
C1276      H1281   1.081       .  S
C1277      C1278   1.422       .  A
C1278      C1279   1.517       .  S
C1279      F1283   1.385   1_554  S
C1279      F1284   1.383       .  S
C1282      F1286   1.383       .  S
C1282      F1287   1.383       .  S
C1282      F1288   1.385   1_556  S
C1289      C1294   1.410       .  A
C1289      H1296   1.081       .  S
C1290      C1291   1.416       .  A
C1291      C1292   1.417       .  A
C1291      C1298   1.518       .  S
C1292      C1293   1.419       .  A
C1292      H1297   1.082       .  S
C1294      C1295   1.521       .  S
C1295      F1299   1.385       .  S
C1295      F1300   1.383       .  S
C1295      F1301   1.383       .  S
C1298      F1302   1.383       .  S
C1298      F1303   1.383       .  S
C1298      F1304   1.385       .  S
C1305      C1306   1.412       .  A
C1306      C1307   1.410       .  A
C1307      C1860   1.401       .  A
C1307      C1314   1.515       .  S
C1308      C1859   1.410   1_545  A
C1308      C1309   1.411       .  A
C1308      H1313   1.083       .  S
C1310      C1311   1.521       .  S
C1311      F1315   1.385       .  S
C1311      F1316   1.383       .  S
C1311      F1317   1.382       .  S
C1314      F1318   1.383       .  S
C1314      F1319   1.379       .  S
C1314      F1320   1.385       .  S
C1321      C1322   1.409       .  A
C1321      C1326   1.411       .  A
C1321      H1328   1.082       .  S
C1322      C1323   1.411       .  A
C1323      C1324   1.410       .  A
C1323      C1330   1.518       .  S
C1324      C1325   1.415       .  A
C1324      H1329   1.083       .  S
C1325      C1326   1.418       .  A
C1326      C1327   1.519       .  S
C1327      F1331   1.385       .  S
C1327      F1332   1.383       .  S
C1327      F1333   1.383       .  S
C1330      F1334   1.384       .  S
C1330      F1335   1.382       .  S
C1330      F1336   1.384       .  S
C1337      C1338   1.411       .  A
C1337      C1894   1.413       .  A
C1337      H1344   1.083       .  S
C1338      C1339   1.409       .  A
C1340      C1341   1.416   1_565  A
C1340      H1345   1.081       .  S
C1342      C1889   1.415   1_545  A
C1342      C1343   1.515       .  S
C1343      F1347   1.385       .  S
C1343      F1348   1.382   1_655  S
C1343      F1349   1.382       .  S
C1346      F1350   1.384       .  S
C1346      F1352   1.384       .  S
C1353      C1354   1.416       .  A
C1353      C1358   1.406   1_556  A
C1353      H1360   1.082       .  S
C1354      C1355   1.413   1_556  A
C1355      C1356   1.415       .  A
C1355      C1362   1.517       .  S
C1356      C1357   1.416       .  A
C1356      H1361   1.082       .  S
C1357      C1358   1.411       .  A
C1358      C1359   1.519   1_554  S
C1359      F1363   1.385       .  S
C1359      F1364   1.384   1_556  S
C1362      F1366   1.383   1_554  S
C1362      F1367   1.383   1_554  S
C1362      F1368   1.385       .  S
C1369      C1370   1.415       .  A
C1369      C1374   1.412       .  A
C1369      H1376   1.083       .  S
C1370      C1371   1.413       .  A
C1371      C1372   1.403       .  A
C1371      C1378   1.517       .  S
C1372      C1373   1.411       .  A
C1372      H1377   1.083       .  S
C1373      C1374   1.411       .  A
C1374      C1375   1.516       .  S
C1375      F1379   1.384       .  S
C1375      F1380   1.383       .  S
C1375      F1381   1.383       .  S
C1378      F1382   1.379       .  S
C1378      F1383   1.382       .  S
C1378      F1384   1.385       .  S
C1385      C1386   1.416       .  A
C1385      C1390   1.410       .  A
C1385      H1392   1.081       .  S
C1386      C1387   1.412       .  A
C1387      C1388   1.408       .  A
C1387      C1394   1.518       .  S
C1388      C1389   1.415       .  A
C1388      H1393   1.080       .  S
C1389      C1390   1.411       .  A
C1390      C1391   1.518       .  S
C1391      F1395   1.385       .  S
C1391      F1396   1.383       .  S
C1391      F1397   1.382       .  S
C1394      F1950   1.383       .  S
C1394      F1951   1.383       .  S
C1394      F1952   1.385       .  S
F1398      C1946   1.383       .  S
F1399      C1946   1.383       .  S
F1400      C1946   1.385       .  S
C1401      C1402   1.412       .  A
C1401      C1406   1.409       .  A
C1401      H1408   1.083       .  S
C1402      C1403   1.414       .  A
C1403      C1404   1.406       .  A
C1403      C1410   1.519       .  S
C1404      C1405   1.411       .  A
C1404      H1409   1.083       .  S
C1405      C1406   1.414       .  A
C1406      C1407   1.518       .  S
C1407      F1411   1.385       .  S
C1407      F1412   1.383       .  S
C1407      F1413   1.384       .  S
C1410      F1414   1.383       .  S
C1410      F1415   1.383       .  S
C1410      F1416   1.385       .  S
C1417      C1422   1.410       .  A
C1418      C1971   1.418   1_545  A
C1419      C1970   1.414       .  A
C1419      C1426   1.519       .  S
C1420      C1421   1.412       .  A
C1420      H1425   1.082       .  S
C1421      C1974   1.410       .  A
C1422      C1973   1.413   1_545  A
C1422      C1423   1.520       .  S
C1423      F1427   1.385       .  S
C1423      F1428   1.383   1_545  S
C1423      F1429   1.384   1_545  S
C1426      F1430   1.383       .  S
C1426      F1431   1.384       .  S
C1426      F1432   1.385       .  S
C1433      C1434   1.418       .  A
C1433      C1438   1.413       .  A
C1433      H1440   1.082       .  S
C1434      C1435   1.421       .  A
C1435      C1436   1.410       .  A
C1435      C1442   1.519       .  S
C1436      C1437   1.408       .  A
C1436      H1441   1.083       .  S
C1437      C1438   1.410       .  A
C1438      C1439   1.517       .  S
C1439      F1443   1.384       .  S
C1439      F1444   1.383       .  S
C1439      F1445   1.382       .  S
C1442      F1446   1.383       .  S
C1442      F1447   1.383       .  S
C1442      F1448   1.385       .  S
C1449      C1450   1.418   1_565  A
C1449      H1456   1.081       .  S
C1451      C1452   1.404       .  A
C1452      C1453   1.404       .  A
C1452      H1457   1.083       .  S
C1453      C2006   1.415       .  A
C1454      C2005   1.416       .  A
C1454      C1455   1.519       .  S
C1455      F1459   1.385       .  S
C1455      F1460   1.384       .  S
C1455      F1461   1.383       .  S
C1458      F1462   1.383       .  S
C1458      F1463   1.380       .  S
C1465      C1466   1.409       .  A
C1465      C1470   1.409       .  A
C1465      H1472   1.078       .  S
C1466      C2019   1.410   1_565  A
C1467      C2018   1.422       .  A
C1467      C1468   1.412       .  A
C1467      C1474   1.520       .  S
C1468      C1469   1.410       .  A
C1468      H1473   1.082       .  S
C1469      C2022   1.412       .  A
C1470      C2021   1.415       .  A
C1470      C1471   1.519       .  S
C1471      F1475   1.385       .  S
C1471      F1476   1.383       .  S
C1471      F1477   1.383       .  S
C1474      F1478   1.383       .  S
C1474      F1479   1.384       .  S
C1474      F1480   1.385       .  S
C1481      C1482   1.412       .  A
C1481      C1486   1.410       .  A
C1481      H1488   1.082       .  S
C1482      C1483   1.411       .  A
C1483      C1484   1.414       .  A
C1483      C1490   1.517   1_545  S
C1484      C1485   1.419       .  A
C1484      H1489   1.082       .  S
C1485      C1486   1.417       .  A
C1486      C1487   1.519       .  S
C1487      F1491   1.385       .  S
C1487      F1492   1.384       .  S
C1487      F1493   1.383       .  S
C1490      F1494   1.381       .  S
C1490      F1495   1.382       .  S
C1490      F1496   1.385       .  S
C1497      C1498   1.410       .  A
C1497      C1502   1.407       .  A
C1497      H1504   1.083       .  S
C1498      C1711   1.476       .  S
C1498      C1499   1.414       .  A
C1499      C1500   1.403       .  A
C1499      C2058   1.518       .  S
C1500      C1501   1.407       .  A
C1500      H1505   1.083       .  S
C1501      C1502   1.411       .  A
C1502      C1503   1.515       .  S
C1503      F1507   1.385       .  S
C1503      F1508   1.383       .  S
C1503      F1509   1.382       .  S
C1506      C2051   1.518       .  S
C1506      F1510   1.383       .  S
C1506      F2063   1.382       .  S
C1506      F2064   1.385       .  S
F1511      C2058   1.382       .  S
F1512      C2058   1.385       .  S
C1513      C1514   1.414       .  A
C1513      C1518   1.413       .  A
C1513      H2072   1.083       .  S
C1514      C1515   1.412       .  A
C1515      C1516   1.412       .  A
C1515      C1522   1.518   1_545  S
C1516      C1517   1.418       .  A
C1516      H1521   1.082       .  S
C1517      C1518   1.415       .  A
C1518      C1519   1.517       .  S
C1519      F2075   1.385       .  S
C1519      F1524   1.383       .  S
C1519      F2077   1.383   1_655  S
H1520      C2065   1.082       .  S
C1522      F1526   1.382       .  S
C1522      F1527   1.382       .  S
C1522      F1528   1.385       .  S
F1523      C2071   1.385       .  S
F1525      C2071   1.383   1_455  S
C1529      C1530   1.404       .  A
C1529      C1534   1.404       .  A
C1529      H1536   1.083       .  S
C1530      C1531   1.412       .  A
C1531      C1532   1.414       .  A
C1531      C1538   1.516       .  S
C1532      C1533   1.411       .  A
C1532      H1537   1.083       .  S
C1533      C1534   1.414       .  A
C1534      C1535   1.517   1_655  S
C1535      F1539   1.385       .  S
C1535      F1540   1.380   1_455  S
C1535      F1541   1.382       .  S
C1538      F1543   1.383       .  S
C1538      F1544   1.385       .  S
C1545      C1546   1.413       .  A
C1545      C1550   1.411       .  A
C1545      H1552   1.083       .  S
C1546      C1547   1.415       .  A
C1547      C2100   1.404       .  A
C1547      C1554   1.520       .  S
C1548      C2099   1.410       .  A
C1548      C2101   1.416   1_545  A
C1548      H1553   1.082       .  S
C1549      C1725   1.482       .  S
C1549      C2100   1.409       .  A
C1549      C1550   1.410       .  A
C1550      C1551   1.516       .  S
C1551      F1555   1.384       .  S
C1551      F2108   1.383       .  S
C1551      F1557   1.384       .  S
C1554      F2110   1.382       .  S
C1554      F1559   1.382       .  S
C1554      F1560   1.385       .  S
F1556      C2103   1.383       .  S
F1558      C2106   1.384       .  S
C1561      C2114   1.417   1_545  A
C1561      C1566   1.410       .  A
C1561      H1568   1.082       .  S
C1562      C2113   1.416       .  A
C1562      C1563   1.421       .  A
C1563      C1564   1.412       .  A
C1563      C1570   1.520       .  S
C1564      C2117   1.409       .  A
C1564      H1569   1.083       .  S
C1565      C2116   1.409       .  A
C1565      C1566   1.408   1_565  A
C1566      C1567   1.516       .  S
C1567      F1571   1.384       .  S
C1567      F1572   1.382       .  S
C1567      F1573   1.383       .  S
C1570      F1574   1.383       .  S
C1570      F1575   1.383       .  S
C1570      F1576   1.385       .  S
C1577      C2130   1.416       .  A
C1577      C1582   1.405       .  A
C1577      H1584   1.081       .  S
C1578      C2129   1.420       .  A
C1578      C1579   1.416   1_565  A
C1580      C2133   1.418   1_545  A
C1580      H1585   1.082       .  S
C1581      C2132   1.416       .  A
C1582      C1583   1.520       .  S
C1583      F1587   1.385       .  S
C1583      F1588   1.384       .  S
C1583      F1589   1.383       .  S
C1586      F1590   1.383       .  S
C1586      F1592   1.385       .  S
C1593      C1594   1.415       .  A
C1593      C1598   1.418       .  A
C1593      H1600   1.082       .  S
C1595      C1596   1.410       .  A
C1595      C1602   1.518       .  S
C1596      H1601   1.082       .  S
C1597      C1598   1.420       .  A
C1598      C1599   1.518       .  S
C1599      F1603   1.385       .  S
C1599      F1604   1.383       .  S
C1599      F1605   1.383       .  S
C1602      F1606   1.384       .  S
C1602      F1607   1.382       .  S
C1602      F1608   1.385       .  S
C1609      C1614   1.419       .  A
C1609      H1616   1.083       .  S
C1610      C1611   1.410       .  A
C1611      C1612   1.403       .  A
C1611      C1618   1.516       .  S
C1612      C2165   1.415   1_455  A
C1612      H1617   1.081       .  S
C1613      C2164   1.421   1_655  A
C1614      C1615   1.515       .  S
C1615      F1619   1.385       .  S
C1615      F1620   1.384   1_565  S
C1615      F1621   1.382       .  S
C1618      F1622   1.383       .  S
C1618      F1623   1.379       .  S
C1618      F1624   1.385       .  S
C1625      C1626   1.420       .  A
C1625      C1630   1.407       .  A
C1625      H1632   1.082       .  S
C1626      C1627   1.418       .  A
C1627      C1628   1.414       .  A
C1628      C1629   1.409       .  A
C1628      H1633   1.082       .  S
C1629      C1630   1.407       .  A
C1630      C1631   1.520       .  S
C1631      F1635   1.385       .  S
C1631      F1636   1.384       .  S
C1631      F1637   1.383       .  S
C1634      F1638   1.384       .  S
C1634      F1639   1.383       .  S
C1634      F1640   1.385       .  S
C1641      C1646   1.406       .  A
C1641      H1648   1.084       .  S
C1642      C1643   1.413       .  A
C1643      C1644   1.406       .  A
C1643      C1650   1.520       .  S
C1644      C1645   1.415       .  A
C1644      H1649   1.082       .  S
C1646      C1647   1.517       .  S
C1647      F1651   1.385       .  S
C1647      F1652   1.381       .  S
C1647      F1653   1.382       .  S
C1650      F1654   1.382       .  S
C1650      F1655   1.384       .  S
C1650      F1656   1.385       .  S
O1657     Ni1665   1.967       .  S
O1657      C1667   1.294       .  A
O1658     Ni1665   1.966       .  S
O1658      C1668   1.293       .  A
O1659     Ni1665   1.880       .  S
O1660     Ni1665   1.884       .  S
O1660      C1670   1.271       .  A
O1661     Ni1666   1.966       .  S
O1662     Ni1666   1.963       .  S
O1662      C1669   1.292       .  A
O1663     Ni1666   1.888       .  S
O1664     Ni1666   1.884       .  S
C1669      C2194   1.487       .  S
C1670      C2178   1.501       .  S
O1671     Ni1679   1.955       .  S
O1671      C1681   1.291       .  A
O1672     Ni1679   1.956       .  S
O1672      C1682   1.291       .  A
O1673     Ni1679   1.876       .  S
O1673      C1683   1.271       .  A
O1674     Ni1679   1.885       .  S
O1674      C1684   1.272       .  A
O1675     Ni1680   1.962   1_565  S
O1675      C1684   1.292       .  A
O1676     Ni1680   1.958       .  S
O1676      C1683   1.292   1_545  A
O1677     Ni1680   1.887       .  S
O1677      C1682   1.273   1_545  A
O1678     Ni1680   1.876       .  S
O1678      C1681   1.271   1_545  A
Ni1679    Ni1680   2.377   1_565  S
C1681      C2133   1.498       .  S
C1682      C2114   1.500       .  S
C1683      C2098   1.494       .  S
C1684      C2181   1.500       .  S
O1685     Ni1693   1.950       .  S
O1685      C1695   1.289       .  A
O1686     Ni1693   1.946       .  S
O1686      C1696   1.288       .  A
O1687     Ni1693   1.876       .  S
O1687      C1697   1.270       .  A
O1688     Ni1693   1.880       .  S
O1688      C1698   1.272       .  A
O1689     Ni1694   1.954   1_655  S
O1689      C1698   1.290       .  A
O1690     Ni1694   1.950       .  S
O1690      C1697   1.290   1_455  A
O1691     Ni1694   1.885       .  S
O1691      C1696   1.273   1_455  A
O1692     Ni1694   1.876       .  S
O1692      C1695   1.272   1_455  A
Ni1693    Ni1694   2.384   1_655  S
C1695      C2165   1.497       .  S
C1696      C2149   1.478       .  S
C1697      C2085   1.475   1_655  S
C1698      C2069   1.490       .  S
O1699     Ni1707   1.953       .  S
O1699      C1709   1.290       .  A
O1700     Ni1707   1.952       .  S
O1700      C1710   1.290       .  A
O1701     Ni1707   1.876       .  S
O1701      C1711   1.271       .  A
O1702     Ni1707   1.887       .  S
O1702      C1712   1.274       .  A
O1703      C1712   1.289       .  A
O1704     Ni1708   1.955       .  S
O1705     Ni1708   1.887       .  S
O1706     Ni1708   1.879       .  S
C1709      C2130   1.499       .  S
C1710      C2117   1.492       .  S
C1712      C2066   1.495       .  S
O1713     Ni1721   1.956       .  S
O1713      C1723   1.291       .  A
O1714     Ni1721   1.954       .  S
O1714      C1724   1.290       .  A
O1715     Ni1721   1.870       .  S
O1715      C1725   1.269       .  A
O1716     Ni1721   1.885       .  S
O1716      C1726   1.273       .  A
O1717      C1726   1.293       .  A
O1718     Ni1722   1.963       .  S
O1719     Ni1722   1.886       .  S
O1720     Ni1722   1.874       .  S
C1723      C2002   1.487       .  S
C1724      C2018   1.509       .  S
C1726      C2034   1.506       .  S
O1727     Ni1735   1.960       .  S
O1727      C1737   1.292       .  A
O1728     Ni1735   1.961       .  S
O1728      C1738   1.293       .  A
O1729     Ni1735   1.874       .  S
O1729      C1739   1.270       .  A
O1730     Ni1735   1.892       .  S
O1730      C1740   1.273       .  A
O1731     Ni1736   1.958       .  S
O1731      C1740   1.292       .  A
O1732     Ni1736   1.956       .  S
O1732      C1739   1.291       .  A
O1733     Ni1736   1.885       .  S
O1733      C1738   1.271       .  A
O1734     Ni1736   1.870       .  S
O1734      C1737   1.270       .  A
Ni1735    Ni1736   2.381       .  S
C1737      C1970   1.500       .  S
C1738      C1986   1.492       .  S
C1739      C1954   1.482       .  S
C1740      C2037   1.498       .  S
O1741     Ni1749   1.957       .  S
O1741      C1751   1.291       .  A
O1742     Ni1749   1.957       .  S
O1742      C1752   1.292       .  A
O1743     Ni1749   1.873       .  S
O1743      C1753   1.270       .  A
O1744     Ni1749   1.882       .  S
O1744      C1754   1.270       .  A
O1745     Ni1750   1.959   1_565  S
O1745      C1754   1.291       .  A
O1746     Ni1750   1.957       .  S
O1746      C1753   1.291   1_545  A
O1747     Ni1750   1.884       .  S
O1747      C1752   1.272   1_545  A
O1748     Ni1750   1.875       .  S
O1748      C1751   1.271   1_545  A
Ni1749    Ni1750   2.382   1_565  S
C1751      C2005   1.502       .  S
C1752      C2021   1.494       .  S
C1753      C2053   1.481       .  S
C1754      C1938   1.477       .  S
O1755     Ni1763   1.958       .  S
O1755      C1765   1.291       .  A
O1756     Ni1763   1.959       .  S
O1756      C1766   1.292       .  A
O1757     Ni1763   1.884       .  S
O1757      C1767   1.271       .  A
O1758     Ni1763   1.890       .  S
O1758      C1768   1.274       .  A
O1759     Ni1764   1.954       .  S
O1759      C1768   1.290       .  A
O1760     Ni1764   1.952       .  S
O1760      C1767   1.290       .  A
O1761     Ni1764   1.891       .  S
O1761      C1766   1.274       .  A
O1762     Ni1764   1.874       .  S
O1762      C1765   1.271       .  A
Ni1763    Ni1764   2.378       .  S
C1765      C1973   1.498       .  S
C1766      C1989   1.508       .  S
C1767      C1922   1.484       .  S
C1768      C1941   1.502       .  S
O1769     Ni1777   1.955       .  S
O1769      C1779   1.291       .  A
O1770     Ni1777   1.955       .  S
O1770      C1780   1.290       .  A
O1771     Ni1777   1.877       .  S
O1771      C1781   1.271       .  A
O1772     Ni1777   1.888       .  S
O1772      C1782   1.273       .  A
O1773     Ni1778   1.964       .  S
O1773      C1782   1.292       .  A
O1774     Ni1778   1.955       .  S
O1774      C1781   1.290       .  A
O1775     Ni1778   1.902       .  S
O1775      C1780   1.276       .  A
O1776     Ni1778   1.890       .  S
O1776      C1779   1.272       .  A
Ni1777    Ni1778   2.377       .  S
C1779      C1890   1.485       .  S
C1780      C1874   1.515       .  S
C1781      C1925   1.481       .  S
C1782      C1906   1.512       .  S
O1783     Ni1791   1.963       .  S
O1783      C1793   1.293       .  A
O1784     Ni1791   1.966       .  S
O1784      C1794   1.294       .  A
O1785     Ni1791   1.885       .  S
O1785      C1795   1.270       .  A
O1786     Ni1791   1.888       .  S
O1786      C1796   1.272       .  A
O1787     Ni1792   1.961       .  S
O1787      C1796   1.292       .  A
O1788     Ni1792   1.959   1_455  S
O1788      C1795   1.292   1_455  A
O1789     Ni1792   1.879       .  S
O1789      C1794   1.271       .  A
O1790     Ni1792   1.864       .  S
O1790      C1793   1.269       .  A
Ni1791    Ni1792   2.378       .  S
C1793      C1858   1.498       .  S
C1794      C1842   1.511       .  S
C1795      C2197   1.488       .  S
C1796      C1909   1.490       .  S
O1797     Ni1805   1.962       .  S
O1797      C1807   1.293       .  A
O1798     Ni1805   1.959       .  S
O1798      C1808   1.292       .  A
O1799     Ni1805   1.872       .  S
O1799      C1809   1.269       .  A
O1800     Ni1805   1.879       .  S
O1800      C1810   1.271       .  A
O1801     Ni1806   1.968       .  S
O1801      C1810   1.294       .  A
O1802     Ni1806   1.959       .  S
O1802      C1809   1.292       .  A
O1803     Ni1806   1.899       .  S
O1803      C1808   1.275       .  A
O1804     Ni1806   1.889       .  S
O1804      C1807   1.271       .  A
Ni1805    Ni1806   2.380       .  S
C1807      C1893   1.485       .  S
C1808      C1877   1.503       .  S
C1809      C1957   1.481       .  S
C1810      C1826   1.507       .  S
O1811     Ni1819   1.966       .  S
O1811      C1821   1.293       .  A
O1812     Ni1819   1.970       .  S
O1812      C1822   1.295       .  A
O1813     Ni1819   1.880       .  S
O1814     Ni1819   1.888       .  S
O1814      C1824   1.272       .  A
O1815     Ni1820   1.965       .  S
O1816     Ni1820   1.958       .  S
O1816      C1823   1.292       .  A
O1817     Ni1820   1.876       .  S
O1818     Ni1820   1.865       .  S
C1823      C2082   1.479       .  S
C1824      C1829   1.491       .  S
C1825      C1826   1.420       .  A
C1825      C1830   1.409   1_556  A
C1825      H1832   1.083       .  S
C1826      C1827   1.416   1_556  A
C1827      C1828   1.414       .  A
C1827      C1834   1.516       .  S
C1828      C1829   1.412       .  A
C1828      H1833   1.084       .  S
C1829      C1830   1.408       .  A
C1830      C1831   1.517       .  S
C1831      F1835   1.385   1_554  S
C1831      F1836   1.381       .  S
C1834      F1838   1.383   1_554  S
C1834      F1839   1.383   1_554  S
C1834      F1840   1.385       .  S
C1841      C1846   1.412       .  A
C1841      H1848   1.082       .  S
C1842      C1843   1.416       .  A
C1843      C1844   1.413       .  A
C1843      C1850   1.520       .  S
C1844      C1845   1.419       .  A
C1844      H1849   1.081       .  S
C1846      C1847   1.517       .  S
C1847      F1851   1.384       .  S
C1847      F1852   1.381       .  S
C1847      F1853   1.382       .  S
C1850      F1854   1.384       .  S
C1850      F1855   1.383       .  S
C1850      F1856   1.385       .  S
C1857      C1858   1.419   1_455  A
C1858      C1859   1.416       .  A
C1859      C1866   1.517       .  S
C1860      C1861   1.409       .  A
C1860      H1865   1.083       .  S
C1862      C1863   1.518       .  S
C1863      F1867   1.385       .  S
C1863      F1868   1.383       .  S
C1863      F1869   1.383       .  S
C1866      F1870   1.383       .  S
C1866      F1871   1.383       .  S
C1866      F1872   1.385       .  S
C1873      C1874   1.419       .  A
C1873      C1878   1.415       .  A
C1873      H1880   1.082       .  S
C1874      C1875   1.423       .  A
C1875      C1876   1.415       .  A
C1875      C1882   1.520       .  S
C1876      C1877   1.412       .  A
C1876      H1881   1.083       .  S
C1877      C1878   1.413       .  A
C1878      C1879   1.518       .  S
C1879      F1883   1.384       .  S
C1879      F1884   1.384       .  S
C1879      F1885   1.383       .  S
C1882      F1886   1.383       .  S
C1882      F1887   1.384       .  S
C1882      F1888   1.385       .  S
C1889      C1890   1.411       .  A
C1889      H1896   1.083       .  S
C1890      C1891   1.411       .  A
C1892      C1893   1.411       .  A
C1892      H1897   1.083       .  S
C1894      C1895   1.516       .  S
C1895      F1899   1.385       .  S
C1895      F1900   1.382       .  S
C1895      F1901   1.383       .  S
C1898      F1902   1.383       .  S
C1898      F1904   1.384       .  S
C1905      C1906   1.421       .  A
C1905      C1910   1.411   1_556  A
C1905      H1912   1.081       .  S
C1906      C1907   1.420   1_556  A
C1907      C1908   1.415       .  A
C1907      C1914   1.518       .  S
C1908      C1909   1.411       .  A
C1908      H1913   1.083       .  S
C1909      C1910   1.407       .  A
C1910      C1911   1.518       .  S
C1911      F1915   1.384   1_554  S
C1911      F1916   1.384       .  S
C1914      F1918   1.383   1_554  S
C1914      F1919   1.383   1_554  S
C1914      F1920   1.385       .  S
C1921      C1922   1.412       .  A
C1921      C1926   1.412       .  A
C1921      H1928   1.083       .  S
C1922      C1923   1.415       .  A
C1923      C1924   1.404       .  A
C1923      C1930   1.518       .  S
C1924      C1925   1.407       .  A
C1924      H1929   1.083       .  S
C1925      C1926   1.411       .  A
C1926      C1927   1.517       .  S
C1927      F1931   1.385       .  S
C1927      F1932   1.383       .  S
C1927      F1933   1.384       .  S
C1930      F1934   1.381       .  S
C1930      F1935   1.382       .  S
C1930      F1936   1.385       .  S
C1937      C1938   1.405       .  A
C1937      C1942   1.415       .  A
C1937      H1944   1.082       .  S
C1938      C1939   1.409       .  A
C1939      C1940   1.407       .  A
C1939      C1946   1.518       .  S
C1940      C1941   1.414       .  A
C1940      H1945   1.082       .  S
C1941      C1942   1.423       .  A
C1942      C1943   1.518       .  S
C1943      F1947   1.385       .  S
C1943      F1948   1.383       .  S
C1943      F1949   1.384       .  S
C1953      C1954   1.413       .  A
C1953      C1958   1.409       .  A
C1953      H1960   1.083       .  S
C1954      C1955   1.412       .  A
C1955      C1956   1.406       .  A
C1955      C1962   1.518       .  S
C1956      C1957   1.410       .  A
C1956      H1961   1.083       .  S
C1957      C1958   1.411       .  A
C1958      C1959   1.517       .  S
C1959      F1963   1.385       .  S
C1959      F1964   1.382       .  S
C1959      F1965   1.383       .  S
C1962      F1966   1.382       .  S
C1962      F1967   1.383       .  S
C1962      F1968   1.385       .  S
C1969      C1974   1.401       .  A
C1971      C1978   1.520       .  S
C1972      C1973   1.416       .  A
C1972      H1977   1.082       .  S
C1974      C1975   1.515       .  S
C1975      F1979   1.385       .  S
C1975      F1980   1.382       .  S
C1975      F1981   1.378       .  S
C1978      F1982   1.384   1_565  S
C1978      F1983   1.383       .  S
C1978      F1984   1.385       .  S
C1985      C1986   1.411       .  A
C1985      C1990   1.413       .  A
C1985      H1992   1.083       .  S
C1986      C1987   1.408       .  A
C1987      C1988   1.413       .  A
C1987      C1994   1.516       .  S
C1988      C1989   1.420       .  A
C1988      H1993   1.082       .  S
C1989      C1990   1.421       .  A
C1990      C1991   1.519       .  S
C1991      F1995   1.385       .  S
C1991      F1996   1.383       .  S
C1991      F1997   1.383       .  S
C1994      F1998   1.384       .  S
C1994      F1999   1.382       .  S
C1994      F2000   1.384       .  S
C2001      C2002   1.414       .  A
C2001      H2008   1.084       .  S
C2003      C2004   1.407   1_455  A
C2004      C2005   1.419   1_545  A
C2004      H2009   1.081       .  S
C2006      C2007   1.515       .  S
C2007      F2011   1.385       .  S
C2007      F2012   1.383       .  S
C2007      F2013   1.383       .  S
C2010      F2014   1.383       .  S
C2010      F2015   1.383       .  S
C2017      C2018   1.418       .  A
C2017      C2022   1.415       .  A
C2017      H2024   1.082       .  S
C2019      C2020   1.412       .  A
C2019      C2026   1.516       .  S
C2020      C2021   1.415   1_545  A
C2020      H2025   1.083       .  S
C2022      C2023   1.517       .  S
C2023      F2027   1.385       .  S
C2023      F2028   1.383       .  S
C2023      F2029   1.383       .  S
C2026      F2030   1.382       .  S
C2026      F2031   1.382       .  S
C2026      F2032   1.385       .  S
C2033      C2034   1.417       .  A
C2033      C2038   1.409       .  A
C2033      H2040   1.082       .  S
C2034      C2035   1.416       .  A
C2035      C2036   1.417       .  A
C2035      C2042   1.517       .  S
C2036      C2037   1.416       .  A
C2036      H2041   1.083       .  S
C2037      C2038   1.411       .  A
C2038      C2039   1.518       .  S
C2039      F2043   1.384       .  S
C2039      F2044   1.383       .  S
C2039      F2045   1.383       .  S
C2042      F2046   1.383       .  S
C2042      F2047   1.383       .  S
C2042      F2048   1.385       .  S
C2049      C2050   1.412   1_545  A
C2049      C2054   1.410       .  A
C2049      H2056   1.083       .  S
C2050      C2051   1.411       .  A
C2051      C2052   1.404       .  A
C2052      C2053   1.411       .  A
C2052      H2057   1.083       .  S
C2053      C2054   1.410   1_565  A
C2054      C2055   1.516       .  S
C2055      F2059   1.385       .  S
C2055      F2060   1.383       .  S
C2055      F2061   1.383       .  S
C2058      F2062   1.380       .  S
C2065      C2066   1.416       .  A
C2065      C2070   1.409       .  A
C2066      C2067   1.414       .  A
C2067      C2068   1.409       .  A
C2067      C2074   1.518       .  S
C2068      C2069   1.413       .  A
C2068      H2073   1.083       .  S
C2069      C2070   1.411       .  A
C2070      C2071   1.518       .  S
C2071      F2076   1.383       .  S
C2074      F2078   1.383       .  S
C2074      F2079   1.383       .  S
C2074      F2080   1.385       .  S
C2081      C2082   1.409   1_455  A
C2081      C2086   1.404       .  A
C2081      H2088   1.081       .  S
C2082      C2083   1.411       .  A
C2083      C2084   1.409       .  A
C2083      C2090   1.516       .  S
C2084      C2085   1.410   1_655  A
C2084      H2089   1.083       .  S
C2085      C2086   1.411       .  A
C2086      C2087   1.518       .  S
C2087      F2091   1.384       .  S
C2087      F2092   1.381       .  S
C2087      F2093   1.383       .  S
C2090      F2095   1.384       .  S
C2090      F2096   1.384       .  S
C2097      C2098   1.414       .  A
C2097      C2102   1.409       .  A
C2097      H2104   1.082       .  S
C2098      C2099   1.414   1_565  A
C2099      C2106   1.519       .  S
C2100      H2105   1.084       .  S
C2101      C2102   1.414       .  A
C2102      C2103   1.516       .  S
C2103      F2107   1.385       .  S
C2103      F2109   1.379       .  S
C2106      F2111   1.383       .  S
C2106      F2112   1.385       .  S
C2113      C2118   1.412       .  A
C2113      H2120   1.082       .  S
C2114      C2115   1.419       .  A
C2115      C2116   1.412       .  A
C2115      C2122   1.519       .  S
C2116      H2121   1.083       .  S
C2117      C2118   1.410       .  A
C2118      C2119   1.516       .  S
C2119      F2123   1.385       .  S
C2119      F2124   1.384       .  S
C2119      F2125   1.382       .  S
C2122      F2126   1.383       .  S
C2122      F2127   1.383       .  S
C2122      F2128   1.385       .  S
C2129      C2134   1.409       .  A
C2129      H2136   1.081       .  S
C2130      C2131   1.415       .  A
C2132      H2137   1.082       .  S
C2134      C2135   1.519       .  S
C2135      F2139   1.384       .  S
C2135      F2140   1.383       .  S
C2135      F2141   1.382       .  S
C2138      F2142   1.384       .  S
C2138      F2144   1.385       .  S
C2145      C2146   1.417       .  A
C2145      C2150   1.409       .  A
C2145      H2152   1.083       .  S
C2147      C2148   1.415       .  A
C2147      C2154   1.518       .  S
C2148      H2153   1.082       .  S
C2149      C2150   1.408       .  A
C2150      C2151   1.517       .  S
C2151      F2155   1.385       .  S
C2151      F2156   1.383       .  S
C2151      F2157   1.383       .  S
C2154      F2158   1.384       .  S
C2154      F2159   1.382       .  S
C2154      F2160   1.385       .  S
C2161      C2166   1.411       .  A
C2161      H2168   1.083       .  S
C2162      C2163   1.410   1_655  A
C2163      C2164   1.404   1_565  A
C2163      C2170   1.522   1_565  S
C2164      H2169   1.081       .  S
C2166      C2167   1.517       .  S
C2167      F2171   1.385       .  S
C2167      F2172   1.383       .  S
C2167      F2173   1.383       .  S
C2170      F2174   1.383   1_545  S
C2170      F2175   1.383   1_545  S
C2170      F2176   1.385       .  S
C2177      C2178   1.416       .  A
C2177      C2182   1.411       .  A
C2177      H2184   1.081       .  S
C2178      C2179   1.412       .  A
C2179      C2180   1.412       .  A
C2180      C2181   1.417       .  A
C2180      H2185   1.082       .  S
C2181      C2182   1.413       .  A
C2182      C2183   1.518       .  S
C2183      F2187   1.385   1_565  S
C2183      F2188   1.383       .  S
C2183      F2189   1.383   1_565  S
C2186      F2190   1.384       .  S
C2186      F2191   1.382       .  S
C2186      F2192   1.385       .  S
C2193      C2198   1.405       .  A
C2193      H2200   1.084       .  S
C2194      C2195   1.413       .  A
C2195      C2196   1.415       .  A
C2195      C2202   1.516       .  S
C2196      C2197   1.413       .  A
C2196      H2201   1.084       .  S
C2198      C2199   1.516       .  S
C2199      F2203   1.384       .  S
C2199      F2204   1.378       .  S
C2199      F2205   1.383       .  S
C2202      F2206   1.383       .  S
C2202      F2207   1.383       .  S
C2202      F2208   1.385       .  S
