geometry optimzed in LAMMPS
_audit_creation_date              2020-12-01 
_audit_creation_method            'lammps2cif' 
_symmetry_space_group_name_H-M    'P1' 
_symmetry_Int_Tables_number       1 
_symmetry_cell_setting            triclinic 
loop_ 
_symmetry_equiv_pos_as_xyz 
  x,y,z 
_cell_length_a                    57.65378092 
_cell_length_b                    57.708307916287204 
_cell_length_c                    54.90576666780392 
_cell_angle_alpha                 90.0814801320446 
_cell_angle_beta                  89.89812961891968 
_cell_angle_gamma                 90.18036226551902 
loop_ 
_atom_site_label 
_atom_site_type_symbol 
_atom_site_fract_x 
_atom_site_fract_y 
_atom_site_fract_z 
_atom_site_charge 
O1          O  0.74687644  0.83447925  0.47444727    -0.57200
C2          C  0.74987186  0.84602081  0.54256266     0.75400
O3          O  0.77449862  0.90384259  0.50778435    -0.58400
C4          C  0.74516571  0.84326662  0.45342693     0.75400
C5          C  0.70330138  0.89599117  0.49612534     0.77700
Cd6        Cd  0.74744311  0.87146191  0.49716236     1.37500
O7          O  0.74711374  0.83593150  0.52229324    -0.57200
O8          O  0.70584066  0.87639989  0.50599168    -0.56100
C9          C  0.79227129  0.89491334  0.49804083     0.77700
O10         O  0.72142478  0.90472434  0.48680180    -0.58400
O11         O  0.75126466  0.86789373  0.54179991    -0.56900
O12         O  0.74464265  0.86519456  0.45261395    -0.56900
O13         O  0.78898700  0.87584755  0.48720921    -0.56000
C14         C  0.73143149  0.79241131  0.74416450    -0.10300
C15         C  0.73610417  0.79280120  0.71922861    -0.04200
C16         C  0.74450278  0.77336156  0.70695467    -0.10300
C17         C  0.74850016  0.75260447  0.71993000     0.10700
C18         C  0.74398127  0.75191951  0.74538236    -0.02100
C19         C  0.73544786  0.77192071  0.75758590     0.10500
C20         C  0.73127935  0.77091771  0.78278366    -0.12100
C21         C  0.73525507  0.75059109  0.79582756    -0.12100
C22         C  0.74343819  0.73054608  0.78409489     0.10500
C23         C  0.74788240  0.73117299  0.75863307    -0.02100
C24         C  0.75682278  0.73260439  0.70822676    -0.12200
C25         C  0.76057444  0.71218428  0.72123478    -0.12200
C26         C  0.75619835  0.71108779  0.74640320     0.10700
C27         C  0.75964533  0.69040618  0.75974414    -0.10300
C28         C  0.75496413  0.69009144  0.78470092    -0.04200
C29         C  0.74714972  0.70974977  0.79704690    -0.10300
H30         H  0.72493223  0.78590067  0.79260699     0.07900
H31         H  0.73173564  0.75064763  0.81520496     0.07900
H32         H  0.76040153  0.73259908  0.68886031     0.08100
H33         H  0.76682872  0.69718105  0.71138412     0.08100
H34         H  0.73286584  0.80857608  0.70904368     0.04600
H35         H  0.75793002  0.67426217  0.79488285     0.04600
C36         C  0.75508572  0.76364379  0.29395827    -0.10300
C37         C  0.76419452  0.78330472  0.28256319    -0.04200
C38         C  0.76976817  0.78343967  0.25782391    -0.10300
C39         C  0.76614640  0.76322656  0.24375384     0.10700
C40         C  0.75689773  0.74302071  0.25503116    -0.02100
C41         C  0.75142774  0.74315957  0.28028420     0.10500
C42         C  0.74237820  0.72295634  0.29103743    -0.12100
C43         C  0.73850795  0.70297268  0.27719974    -0.12100
C44         C  0.74346474  0.70254573  0.25212358     0.10500
C45         C  0.75286665  0.72274069  0.24094877    -0.02100
C46         C  0.77116383  0.76279995  0.21870930    -0.12200
C47         C  0.76710123  0.74294306  0.20487258    -0.12200
C48         C  0.75793556  0.72280943  0.21561590     0.10700
C49         C  0.75366041  0.70266000  0.20171999    -0.10300
C50         C  0.74471073  0.68289132  0.21298502    -0.04200
C51         C  0.73936229  0.68250862  0.23778342    -0.10300
H52         H  0.73819636  0.72249700  0.31026494     0.07900
H53         H  0.73155153  0.68782424  0.28628576     0.07900
H54         H  0.77813534  0.77790970  0.20956842     0.08100
H55         H  0.77121019  0.74347664  0.18563055     0.08100
H56         H  0.76696853  0.79892849  0.29322263     0.04600
H57         H  0.74116982  0.66762560  0.20200338     0.04600
O58         O  0.76483669  0.63096699  0.02320497    -0.57200
C59         C  0.74672084  0.63281882  0.95775240     0.75400
O60         O  0.78119259  0.57944644  0.97850966    -0.58400
C61         C  0.74882686  0.63102033  0.03897193     0.75400
C62         C  0.70754930  0.57052609  0.99192564     0.77700
Cd63       Cd  0.74813486  0.60023699  0.99739572     1.37500
O64         O  0.73315166  0.63454610  0.97579822    -0.57200
O65         O  0.71299172  0.58599205  0.97671402    -0.56100
C66         C  0.79090035  0.57351018  0.99816949     0.77700
O67         O  0.72141101  0.56803238  0.00956524    -0.58400
O68         O  0.76107919  0.61626448  0.95838214    -0.56900
O69         O  0.73242222  0.61679118  0.03544957    -0.56900
O70         O  0.78010816  0.57870517  0.01749289    -0.56000
C71         C  0.75929529  0.18390575  0.24306622    -0.10300
C72         C  0.75783981  0.18435957  0.21771366    -0.04200
C73         C  0.75097814  0.20416860  0.20511046    -0.10300
C74         C  0.74510851  0.22447231  0.21812644     0.10700
C75         C  0.74661297  0.22446942  0.24394191    -0.02100
C76         C  0.75377502  0.20412639  0.25650686     0.10500
C77         C  0.75497785  0.20452527  0.28204616    -0.12100
C78         C  0.74952150  0.22456567  0.29507371    -0.12100
C79         C  0.74273580  0.24492267  0.28300796     0.10500
C80         C  0.74108407  0.24488906  0.25720132    -0.02100
C81         C  0.73808633  0.24476868  0.20607913    -0.12200
C82         C  0.73253796  0.26479155  0.21912047    -0.12200
C83         C  0.73396403  0.26525367  0.24464318     0.10700
C84         C  0.72872006  0.28554959  0.25808786    -0.10300
C85         C  0.73047444  0.28517470  0.28341010    -0.04200
C86         C  0.73732623  0.26535290  0.29600670    -0.10300
H87         H  0.76009265  0.18928306  0.29215202     0.07900
H88         H  0.75062731  0.22398520  0.31474385     0.07900
H89         H  0.73691439  0.24533329  0.18641358     0.08100
H90         H  0.72726455  0.28000177  0.20904739     0.08100
H91         H  0.76233477  0.16889651  0.20746930     0.04600
H92         H  0.72641218  0.30077965  0.29361902     0.04600
C93         C  0.75908237  0.27170944  0.70322291    -0.10300
C94         C  0.76696797  0.29187775  0.71459566    -0.04200
C95         C  0.77057673  0.29302288  0.73972757    -0.10300
C96         C  0.76613011  0.27316381  0.75420539     0.10700
C97         C  0.75832411  0.25236823  0.74282981    -0.02100
C98         C  0.75493445  0.25159626  0.71720650     0.10500
C99         C  0.74733171  0.23087452  0.70631614    -0.12100
C100        C  0.74278871  0.21123949  0.72033614    -0.12100
C101        C  0.74552047  0.21169505  0.74575078     0.10500
C102        C  0.75356714  0.23239669  0.75712762    -0.02100
C103        C  0.76879526  0.27360270  0.77965414    -0.12200
C104        C  0.76429859  0.25391480  0.79368873    -0.12200
C105        C  0.75675324  0.23318115  0.78278456     0.10700
C106        C  0.75210931  0.21313463  0.79675739    -0.10300
C107        C  0.74411880  0.19305716  0.78530655    -0.04200
C108        C  0.74063178  0.19197166  0.76019964    -0.10300
H109        H  0.74482362  0.22971155  0.68681308     0.07900
H110        H  0.73707689  0.19565760  0.71109445     0.07900
H111        H  0.77431136  0.28923515  0.78892414     0.08100
H112        H  0.76664233  0.25506849  0.81321714     0.08100
H113        H  0.77020072  0.30716839  0.70358318     0.04600
H114        H  0.74034749  0.17787744  0.79631236     0.04600
O115        O  0.73836876  0.33863911  0.52132067    -0.57200
C116        C  0.74600143  0.34494995  0.45551767     0.75400
O117        O  0.72163085  0.40523759  0.48625836    -0.58400
C118        C  0.75063678  0.34321796  0.53980068     0.75400
C119        C  0.79207723  0.40105843  0.49481330     0.77700
Cd120      Cd  0.74915451  0.37402115  0.49825642     1.37500
O121        O  0.73500914  0.36383636  0.45728875    -0.57200
O122        O  0.78647869  0.38590123  0.47925890    -0.56100
C123        C  0.70700781  0.40146686  0.50300859     0.77700
O124        O  0.77762664  0.40413942  0.51188528    -0.58400
O125        O  0.75835664  0.33948143  0.47363772    -0.56900
O126        O  0.76246256  0.36172441  0.53872455    -0.56900
O127        O  0.71221725  0.38554740  0.51776413    -0.56000
O128        O  0.75981740  0.13898910  0.02116760    -0.57200
C129        C  0.75320171  0.13198263  0.95534797     0.75400
O130        O  0.77954152  0.07077186  0.98572958    -0.58400
C131        C  0.75257637  0.13124483  0.04134127     0.75400
C132        C  0.70986686  0.07706353  0.00124852     0.77700
Cd133      Cd  0.75317688  0.10284439  0.99813161     1.37500
O134        O  0.74563966  0.13888301  0.97573943    -0.57200
O135        O  0.71339607  0.09275450  0.98559753    -0.56100
C136        C  0.79706249  0.07852654  0.99700678     0.77700
O137        O  0.72689524  0.07228317  0.01480702    -0.58400
O138        O  0.76005345  0.11115418  0.95450267    -0.56900
O139        O  0.74580404  0.11036736  0.04141683    -0.56900
O140        O  0.79390472  0.09691128  0.00903304    -0.56000
O141        O  0.89950489  0.48173451  0.77428045    -0.57200
C142        C  0.89834497  0.49241128  0.71023087     0.75400
O143        O  0.83835602  0.46546713  0.73519061    -0.58400
C144        C  0.89766500  0.49630327  0.79137229     0.75400
C145        C  0.83798528  0.53668292  0.74536276     0.77700
Cd146      Cd  0.86620796  0.49498521  0.75058480     1.37500
O147        O  0.90064779  0.50717212  0.72711209    -0.57200
O148        O  0.85296069  0.53063809  0.72980435    -0.56100
C149        C  0.83857764  0.45267626  0.75388983     0.77700
O150        O  0.83547138  0.52310273  0.76327806    -0.58400
O151        O  0.88105740  0.47892007  0.71201534    -0.56900
O152        O  0.88101673  0.51048147  0.78972557    -0.56900
O153        O  0.85058135  0.46008333  0.77152606    -0.56000
O154        O  0.09684431  0.49004292  0.27162160    -0.57200
C155        C  0.10535380  0.49377513  0.20607058     0.75400
O156        O  0.16538380  0.51657317  0.23620701    -0.58400
C157        C  0.10548020  0.48540705  0.29220055     0.75400
C158        C  0.15695115  0.44471322  0.24953165     0.77700
Cd159      Cd  0.13372223  0.48949725  0.24906466     1.37500
O160        O  0.09643411  0.49219561  0.22707543    -0.57200
O161        O  0.13968023  0.44877595  0.23605147    -0.56100
C162        C  0.15921837  0.53329709  0.24963733     0.77700
O163        O  0.16433077  0.46172641  0.26186169    -0.58400
O164        O  0.12728928  0.49309989  0.20513014    -0.56900
O165        O  0.12728415  0.48287769  0.29278040    -0.56900
O166        O  0.14188317  0.52946339  0.26315695    -0.56000
C167        C  0.95119092  0.50820154  0.98799385    -0.10300
C168        C  0.95172358  0.50299791  0.96320033    -0.04200
C169        C  0.97140601  0.49371276  0.95210176    -0.10300
C170        C  0.99135561  0.48915144  0.96611287     0.10700
C171        C  0.99115255  0.49427457  0.99140969    -0.02100
C172        C  0.97103266  0.50399080  0.00241737     0.10500
C173        C  0.97136233  0.50927729  0.02738505    -0.12100
C174        C  0.99105987  0.50502333  0.04138700    -0.12100
C175        C  0.01105192  0.49527318  0.03089494     0.10500
C176        C  0.01114757  0.48981798  0.00567202    -0.02100
C177        C  0.01139459  0.47963072  0.95554472    -0.12200
C178        C  0.03103830  0.47526858  0.96954565    -0.12200
C179        C  0.03127146  0.48013517  0.99463276     0.10700
C180        C  0.05119674  0.47600131  0.00899390    -0.10300
C181        C  0.05073778  0.48150188  0.03378119    -0.04200
C182        C  0.03111320  0.49101195  0.04485714    -0.10300
H183        H  0.95637307  0.51680130  0.03624956     0.07900
H184        H  0.99051771  0.50944455  0.06054993     0.07900
H185        H  0.01203138  0.47550801  0.93631087     0.08100
H186        H  0.04611113  0.46815069  0.96048995     0.08100
H187        H  0.93649999  0.50648648  0.95219567     0.04600
H188        H  0.06602115  0.47825314  0.04476733     0.04600
C189        C  0.94874654  0.47597530  0.51026196    -0.10300
C190        C  0.94922505  0.48118675  0.53510538    -0.04200
C191        C  0.96944995  0.48874198  0.54666076    -0.10300
C192        C  0.98999870  0.49186512  0.53294178     0.10700
C193        C  0.98987820  0.48684371  0.50760365    -0.02100
C194        C  0.96922712  0.47868344  0.49621434     0.10500
C195        C  0.96961043  0.47364072  0.47116823    -0.12100
C196        C  0.98989683  0.47637359  0.45752599    -0.12100
C197        C  0.01046306  0.48439519  0.46842195     0.10500
C198        C  0.01049444  0.48981850  0.49367450    -0.02100
C199        C  0.01058469  0.49982629  0.54384341    -0.12200
C200        C  0.03076365  0.50293440  0.53013362    -0.12200
C201        C  0.03108714  0.49824740  0.50501003     0.10700
C202        C  0.05148498  0.50137933  0.49085988    -0.10300
C203        C  0.05108762  0.49551180  0.46616764    -0.04200
C204        C  0.03109523  0.48719119  0.45480815    -0.10300
H205        H  0.95417740  0.46754540  0.46192519     0.07900
H206        H  0.98936370  0.47216801  0.43830844     0.07900
H207        H  0.01121052  0.50376792  0.56311755     0.08100
H208        H  0.04620217  0.50889563  0.53944604     0.08100
H209        H  0.93362031  0.47863666  0.54588480     0.04600
H210        H  0.06661915  0.49806784  0.45526991     0.04600
C211        C  0.55299005  0.49460125  0.00320556    -0.10300
C212        C  0.55265460  0.49179691  0.02843283    -0.04200
C213        C  0.53256723  0.48503588  0.04077406    -0.10300
C214        C  0.51223031  0.47987699  0.02753172     0.10700
C215        C  0.51216934  0.48287410  0.00185958    -0.02100
C216        C  0.53256284  0.49049418  0.98962892     0.10500
C217        C  0.53188840  0.49402542  0.96431711    -0.12100
C218        C  0.51144114  0.49049738  0.95124331    -0.12100
C219        C  0.49109499  0.48299300  0.96300136     0.10500
C220        C  0.49150245  0.47885389  0.98849838    -0.02100
C221        C  0.49191841  0.47225428  0.03926745    -0.12200
C222        C  0.47179770  0.46767097  0.02604796    -0.12200
C223        C  0.47117522  0.47102146  0.00072084     0.10700
C224        C  0.45064053  0.46723534  0.98725963    -0.10300
C225        C  0.45045421  0.47177148  0.96231405    -0.04200
C226        C  0.47019149  0.47965580  0.95008022    -0.10300
H227        H  0.54714794  0.49975901  0.95447653     0.07900
H228        H  0.51166840  0.49369237  0.93181580     0.07900
H229        H  0.49145315  0.46974455  0.05879910     0.08100
H230        H  0.45657572  0.46186502  0.03590163     0.08100
H231        H  0.56817811  0.49578099  0.03881731     0.04600
H232        H  0.43457101  0.46895932  0.95211420     0.04600
O233        O  0.39581074  0.48834196  0.72697733    -0.57200
C234        C  0.38795314  0.48645595  0.79203532     0.75400
O235        O  0.33321557  0.51520537  0.76954877    -0.58400
C236        C  0.38749235  0.48414932  0.70610135     0.75400
C237        C  0.33291353  0.44201828  0.74667414     0.77700
Cd238      Cd  0.35843453  0.48577597  0.74935670     1.37500
O239        O  0.39002240  0.50100975  0.77499946    -0.57200
O240        O  0.35440079  0.44389264  0.74254949    -0.56100
C241        C  0.33235442  0.52915329  0.75182724     0.77700
O242        O  0.32259300  0.46061064  0.75243912    -0.58400
O243        O  0.37219733  0.47134902  0.78931209    -0.56900
O244        O  0.36571955  0.48128640  0.70519262    -0.56900
O245        O  0.34213203  0.52231529  0.73247497    -0.56000
C246        C  0.55021424  0.47407184  0.49140690    -0.10300
C247        C  0.55041348  0.47934631  0.46661199    -0.04200
C248        C  0.53063224  0.48718736  0.45462940    -0.10300
C249        C  0.50982690  0.49030683  0.46782149     0.10700
C250        C  0.50929110  0.48526835  0.49316218    -0.02100
C251        C  0.52954565  0.47704913  0.50505802     0.10500
C252        C  0.52857504  0.47226954  0.53015492    -0.12100
C253        C  0.50809656  0.47557360  0.54341643    -0.12100
C254        C  0.48785681  0.48360340  0.53198951     0.10500
C255        C  0.48845369  0.48847440  0.50658993    -0.02100
C256        C  0.48968269  0.49851344  0.45640933    -0.12200
C257        C  0.46929832  0.50179176  0.46959395    -0.12200
C258        C  0.46834556  0.49698050  0.49464984     0.10700
C259        C  0.44776839  0.50039909  0.50815196    -0.10300
C260        C  0.44733935  0.49509400  0.53290734    -0.04200
C261        C  0.46700570  0.48725182  0.54515294    -0.10300
H262        H  0.54373702  0.46608233  0.53973492     0.07900
H263        H  0.50820046  0.47177763  0.56272220     0.07900
H264        H  0.48957396  0.50259353  0.43716935     0.08100
H265        H  0.45421335  0.50808689  0.45996284     0.08100
H266        H  0.56621924  0.47665093  0.45621390     0.04600
H267        H  0.43152413  0.49814113  0.54318236     0.04600
O268        O  0.59542258  0.47778114  0.22375353    -0.57200
C269        C  0.60041466  0.48552826  0.28991550     0.75400
O270        O  0.66211149  0.45816748  0.25957892    -0.58400
C271        C  0.60159360  0.48930905  0.20524971     0.75400
C272        C  0.65830132  0.52844798  0.25036690     0.77700
Cd273      Cd  0.63067300  0.48599789  0.24785097     1.37500
O274        O  0.59711860  0.49877684  0.27195150    -0.57200
O275        O  0.64234444  0.52390649  0.26544874    -0.56100
C276        C  0.65664824  0.44265823  0.24424258     0.77700
O277        O  0.66232109  0.51284609  0.23471035    -0.58400
O278        O  0.61770245  0.47210088  0.28833727    -0.56900
O279        O  0.62111834  0.49927197  0.20663285    -0.56900
O280        O  0.63958923  0.44736804  0.23073238    -0.56000
C281        C  0.25194264  0.26241320  0.79991065    -0.10300
C282        C  0.26080342  0.28216187  0.78850696    -0.04200
C283        C  0.26545951  0.28266798  0.76355094    -0.10300
C284        C  0.26106150  0.26263218  0.74932014     0.10700
C285        C  0.25216449  0.24232091  0.76075850    -0.02100
C286        C  0.24739175  0.24228713  0.78612927     0.10500
C287        C  0.23872009  0.22204853  0.79712608    -0.12100
C288        C  0.23514627  0.20195385  0.78354556    -0.12100
C289        C  0.24011141  0.20140972  0.75850593     0.10500
C290        C  0.24855821  0.22182227  0.74693834    -0.02100
C291        C  0.26577610  0.26212344  0.72421014    -0.12200
C292        C  0.26197512  0.24204244  0.71056560    -0.12200
C293        C  0.25359985  0.22169947  0.72162735     0.10700
C294        C  0.25042851  0.20104047  0.70819683    -0.10300
C295        C  0.24259333  0.18101878  0.71993025    -0.04200
C296        C  0.23720640  0.18090348  0.74470921    -0.10300
H297        H  0.23487816  0.22151948  0.81642534     0.07900
H298        H  0.22873107  0.18672253  0.79290561     0.07900
H299        H  0.27264137  0.27721561  0.71495873     0.08100
H300        H  0.26600944  0.24245245  0.69130366     0.08100
H301        H  0.26435476  0.29748126  0.79939939     0.04600
H302        H  0.23998389  0.16531521  0.70935672     0.04600
O303        O  0.23298836  0.13488922  0.47637686    -0.57200
C304        C  0.24573888  0.13164769  0.54335533     0.75400
O305        O  0.21697563  0.07625067  0.51677105    -0.58400
C306        C  0.24693159  0.13249958  0.45873298     0.75400
C307        C  0.29212821  0.07805060  0.50681472     0.77700
Cd308      Cd  0.24815377  0.10233982  0.50090409     1.37500
O309        O  0.25752920  0.13699576  0.52473811    -0.57200
O310        O  0.28766725  0.09712375  0.51697174    -0.56100
C311        C  0.20720027  0.07280533  0.49643206     0.77700
O312        O  0.27593404  0.06953784  0.49405093    -0.58400
O313        O  0.23399252  0.11310091  0.54197032    -0.56900
O314        O  0.26166078  0.11638928  0.46078720    -0.56900
O315        O  0.21690874  0.08218090  0.47827811    -0.56000
C316        C  0.22288614  0.28497217  0.24028111    -0.10300
C317        C  0.22619828  0.28506055  0.21512896    -0.04200
C318        C  0.23518106  0.26595566  0.20266502    -0.10300
C319        C  0.24130941  0.24577833  0.21590173     0.10700
C320        C  0.23793880  0.24531337  0.24159544    -0.02100
C321        C  0.22871361  0.26501242  0.25384270     0.10500
C322        C  0.22567397  0.26424951  0.27921699    -0.12100
C323        C  0.23133483  0.24442651  0.29243607    -0.12100
C324        C  0.24031918  0.22470211  0.28075392     0.10500
C325        C  0.24378024  0.22512144  0.25509129    -0.02100
C326        C  0.25038903  0.22604426  0.20426596    -0.12200
C327        C  0.25629227  0.20625789  0.21756540    -0.12200
C328        C  0.25311213  0.20541187  0.24294098     0.10700
C329        C  0.25894733  0.18544890  0.25666546    -0.10300
C330        C  0.25500086  0.18530128  0.28176315    -0.04200
C331        C  0.24587290  0.20444892  0.29397855    -0.10300
H332        H  0.21880916  0.27900998  0.28902919     0.07900
H333        H  0.22859010  0.24464675  0.31194796     0.07900
H334        H  0.25293963  0.22574855  0.18473149     0.08100
H335        H  0.26324889  0.19151038  0.20780332     0.08100
H336        H  0.22181650  0.30057435  0.20497448     0.04600
H337        H  0.25947636  0.16995809  0.29215014     0.04600
O338        O  0.25716052  0.33659919  0.97694708    -0.57200
C339        C  0.24903080  0.34521619  0.04238159     0.75400
O340        O  0.27656295  0.40348982  0.01304505    -0.58400
C341        C  0.24759389  0.34243607  0.95717191     0.75400
C342        C  0.20628442  0.39972341  0.99638574     0.77700
Cd343      Cd  0.24902373  0.37316070  0.99865074     1.37500
O344        O  0.23866075  0.33899101  0.02315458    -0.57200
O345        O  0.20907378  0.38273608  0.01057467    -0.56100
C346        C  0.29293191  0.39782638  0.99885913     0.77700
O347        O  0.22381538  0.40541437  0.98382401    -0.58400
O348        O  0.25920553  0.36466325  0.04151268    -0.56900
O349        O  0.23936204  0.36271806  0.95647653    -0.56900
O350        O  0.28845904  0.38170997  0.98395330    -0.56000
O351        O  0.59968565  0.99723612  0.73259491    -0.57200
C352        C  0.60742430  0.99295416  0.79767932     0.75400
O353        O  0.66563100  0.96614013  0.77159418    -0.58400
C354        C  0.60863900  0.99859024  0.71159628     0.75400
C355        C  0.66234025  0.03720542  0.75217514     0.77700
Cd356      Cd  0.63650375  0.99392522  0.75491445     1.37500
O357        O  0.60057612  0.98518425  0.77736789    -0.57200
O358        O  0.64320892  0.03541561  0.76331579    -0.56100
C359        C  0.66032485  0.94953804  0.75758742     0.77700
O360        O  0.67008328  0.01870179  0.74283766    -0.58400
O361        O  0.62793267  0.00088730  0.79825633    -0.56900
O362        O  0.63055159  0.99767001  0.71066190    -0.56900
O363        O  0.64472248  0.95378934  0.74211642    -0.56000
O364        O  0.37911581  0.00359032  0.29451428    -0.57200
C365        C  0.39966920  0.98865755  0.21425823     0.75400
O366        O  0.33987095  0.95993337  0.23606739    -0.58400
C367        C  0.39573394  0.98945881  0.29678320     0.75400
C368        C  0.33806046  0.03140283  0.24783057     0.77700
Cd369      Cd  0.36654112  0.98972220  0.25381981     1.37500
O370        O  0.40008882  0.00436838  0.23034406    -0.57200
O371        O  0.35501351  0.02671946  0.23409664    -0.56100
C372        C  0.33842510  0.94759255  0.25507991     0.77700
O373        O  0.33370824  0.01650252  0.26412482    -0.58400
O374        O  0.38409795  0.97329855  0.21673747    -0.56900
O375        O  0.39895234  0.97579287  0.27911555    -0.56900
O376        O  0.34911954  0.95526526  0.27348267    -0.56000
C377        C  0.55042781  0.01054827  0.99537685    -0.10300
C378        C  0.54985637  0.00773844  0.97015083    -0.04200
C379        C  0.53019709  0.99933454  0.95823073    -0.10300
C380        C  0.51016065  0.99356755  0.97177276     0.10700
C381        C  0.51032410  0.99650803  0.99745453    -0.02100
C382        C  0.53054064  0.00504834  0.00934801     0.10500
C383        C  0.53036434  0.00764889  0.03477701    -0.12100
C384        C  0.51066255  0.00206944  0.04835310    -0.12100
C385        C  0.49049917  0.99362823  0.03695734     0.10500
C386        C  0.49029589  0.99075585  0.01127675    -0.02100
C387        C  0.49007034  0.98497238  0.96038885    -0.12200
C388        C  0.47039348  0.97929271  0.97398570    -0.12200
C389        C  0.47013874  0.98205059  0.99941407     0.10700
C390        C  0.45030840  0.97632510  0.01341590    -0.10300
C391        C  0.45075838  0.97949736  0.03862943    -0.04200
C392        C  0.47044351  0.98798040  0.05052001    -0.10300
H393        H  0.54549552  0.01403042  0.04435767     0.07900
H394        H  0.51135473  0.00439548  0.06790925     0.07900
H395        H  0.48943767  0.98258898  0.94083643     0.08100
H396        H  0.45532440  0.97275402  0.96441344     0.08100
H397        H  0.56519426  0.01199171  0.95953153     0.04600
H398        H  0.43549983  0.97506796  0.04928265     0.04600
C399        C  0.54986252  0.97522387  0.51536372    -0.10300
C400        C  0.54971294  0.98024748  0.54027312    -0.04200
C401        C  0.53073187  0.99068328  0.55158454    -0.10300
C402        C  0.51076628  0.99593541  0.53783616     0.10700
C403        C  0.51041150  0.99071760  0.51253080    -0.02100
C404        C  0.53001472  0.98033057  0.50119747     0.10500
C405        C  0.52937188  0.97582287  0.47602364    -0.12100
C406        C  0.50975461  0.98101814  0.46226232    -0.12100
C407        C  0.49019193  0.99118195  0.47311657     0.10500
C408        C  0.49051832  0.99617114  0.49847489    -0.02100
C409        C  0.49124389  0.00624918  0.54865630    -0.12200
C410        C  0.47163306  0.01141250  0.53488600    -0.12200
C411        C  0.47093910  0.00653944  0.50981686     0.10700
C412        C  0.45118862  0.01173297  0.49567312    -0.10300
C413        C  0.45115939  0.00673056  0.47081958    -0.04200
C414        C  0.47018544  0.99647880  0.45938833    -0.10300
H415        H  0.54408021  0.96831287  0.46668434     0.07900
H416        H  0.51006545  0.97711741  0.44296916     0.07900
H417        H  0.49099031  0.01034969  0.56790584     0.08100
H418        H  0.45700318  0.01933641  0.54402284     0.08100
H419        H  0.56492594  0.97626455  0.55109630     0.04600
H420        H  0.43582992  0.01066588  0.46015311     0.04600
C421        C  0.23969194  0.68785391  0.25796146    -0.10300
C422        C  0.24597080  0.68842483  0.28244648    -0.04200
C423        C  0.25533303  0.70824089  0.29319623    -0.10300
C424        C  0.25878192  0.72843347  0.27922251     0.10700
C425        C  0.25295841  0.72814155  0.25412216    -0.02100
C426        C  0.24336690  0.70776917  0.24337865     0.10500
C427        C  0.23797853  0.70784608  0.21844829    -0.12100
C428        C  0.24191071  0.72753408  0.20426685    -0.12100
C429        C  0.25107379  0.74789851  0.21461937     0.10500
C430        C  0.25650276  0.74832638  0.23982389    -0.02100
C431        C  0.26764695  0.74885225  0.28967657    -0.12200
C432        C  0.27062729  0.76884087  0.27575657    -0.12200
C433        C  0.26529011  0.76895340  0.25079612     0.10700
C434        C  0.26805687  0.78918488  0.23647027    -0.10300
C435        C  0.26298534  0.78822052  0.21163927    -0.04200
C436        C  0.25478440  0.76802336  0.20055023    -0.10300
H437        H  0.23083855  0.69259426  0.20969719     0.07900
H438        H  0.23751932  0.72676784  0.18511649     0.07900
H439        H  0.27215224  0.74955719  0.30880185     0.08100
H440        H  0.27714383  0.78422509  0.28475408     0.08100
H441        H  0.24298246  0.67318808  0.29362723     0.04600
H442        H  0.26569196  0.80357082  0.20056414     0.04600
O443        O  0.25378810  0.64155744  0.47508982    -0.57200
C444        C  0.24812286  0.63209180  0.54109254     0.75400
O445        O  0.22513194  0.57278910  0.51124078    -0.58400
C446        C  0.25491704  0.63269460  0.45405304     0.75400
C447        C  0.29513906  0.58111518  0.49527345     0.77700
Cd448      Cd  0.25097711  0.60496966  0.49734911     1.37500
O449        O  0.24263296  0.64053788  0.52066249    -0.57200
O450        O  0.29249817  0.59982333  0.50697242    -0.56100
C451        C  0.20708085  0.57992755  0.50060439     0.77700
O452        O  0.27720867  0.57311505  0.48491959    -0.58400
O453        O  0.25539174  0.61141147  0.54098412    -0.56900
O454        O  0.25414730  0.61078112  0.45300583    -0.56900
O455        O  0.20965043  0.59794009  0.48780980    -0.56000
C456        C  0.26036592  0.68564713  0.74518919    -0.10300
C457        C  0.25512608  0.68329843  0.72048574    -0.04200
C458        C  0.24671774  0.70176040  0.70674409    -0.10300
C459        C  0.24341291  0.72360667  0.71775563     0.10700
C460        C  0.24817317  0.72636326  0.74294502    -0.02100
C461        C  0.25662978  0.70731259  0.75682185     0.10500
C462        C  0.26071261  0.71042829  0.78182782    -0.12100
C463        C  0.25641607  0.73175985  0.79308358    -0.12100
C464        C  0.24827150  0.75081777  0.77962979     0.10500
C465        C  0.24428329  0.74818001  0.75426888    -0.02100
C466        C  0.23518372  0.74261732  0.70431809    -0.12200
C467        C  0.23158939  0.76405393  0.71537796    -0.12200
C468        C  0.23587219  0.76718128  0.74030963     0.10700
C469        C  0.23181170  0.78875128  0.75180539    -0.10300
C470        C  0.23596327  0.79101703  0.77671828    -0.04200
C471        C  0.24366407  0.77244386  0.79079766    -0.10300
H472        H  0.26697605  0.69626401  0.79290597     0.07900
H473        H  0.25958802  0.73325803  0.81245254     0.07900
H474        H  0.23133318  0.74104298  0.68509886     0.08100
H475        H  0.22528205  0.77817221  0.70426217     0.08100
H476        H  0.25811455  0.66676416  0.71156877     0.04600
H477        H  0.23227409  0.80744060  0.78556862     0.04600
O478        O  0.26940584  0.85707319  0.03616850    -0.57200
C479        C  0.24602114  0.84670958  0.95545134     0.75400
O480        O  0.22513059  0.90784504  0.99163433    -0.58400
C481        C  0.25430300  0.84128579  0.03886951     0.75400
C482        C  0.29490337  0.90060726  0.99594839     0.77700
Cd483      Cd  0.25165715  0.87427011  0.99933478     1.37500
O484        O  0.25845041  0.84017919  0.97309739    -0.57200
O485        O  0.28808309  0.88710843  0.97926532    -0.56100
C486        C  0.21054283  0.90257191  0.00798536     0.77700
O487        O  0.28146133  0.90241276  0.01412062    -0.58400
O488        O  0.23599029  0.86602461  0.95813563    -0.56900
O489        O  0.23837081  0.84065952  0.02309002    -0.56900
O490        O  0.21562196  0.88517201  0.02081304    -0.56000
O491        O  0.09396422  0.97895512  0.72862528    -0.57200
C492        C  0.10169598  0.98587254  0.79274842     0.75400
O493        O  0.16140603  0.95652732  0.75782707    -0.58400
C494        C  0.09885364  0.99085447  0.70999718     0.75400
C495        C  0.16038772  0.02643670  0.75522724     0.77700
Cd496      Cd  0.13059308  0.98588999  0.74995441     1.37500
O497        O  0.11768589  0.97105543  0.78994627    -0.57200
O498        O  0.14615848  0.02011131  0.77143006    -0.56100
C499        C  0.15476453  0.94203583  0.74192540     0.77700
O500        O  0.16152608  0.01353939  0.73658014    -0.58400
O501        O  0.09913936  0.00026341  0.77565060    -0.56900
O502        O  0.11825621  0.00123514  0.71025445    -0.56900
O503        O  0.13714651  0.94786524  0.72980239    -0.56000
O504        O  0.89956785  0.98886810  0.22922988    -0.57200
C505        C  0.89096938  0.98682255  0.29480734     0.75400
O506        O  0.82835136  0.01098864  0.26355690    -0.58400
C507        C  0.89088364  0.98738157  0.20815105     0.75400
C508        C  0.83936284  0.94153750  0.24826175     0.77700
Cd509      Cd  0.86247255  0.98645048  0.25158635     1.37500
O510        O  0.89910859  0.98225406  0.27394372    -0.57200
O511        O  0.85555086  0.94577979  0.26309206    -0.56100
C512        C  0.83645997  0.02957970  0.25470194     0.77700
O513        O  0.83309136  0.95839792  0.23516554    -0.58400
O514        O  0.86945515  0.99115780  0.29571487    -0.56900
O515        O  0.86898684  0.98604837  0.20720978    -0.56900
O516        O  0.85611238  0.02793702  0.24463822    -0.56000
C517        C  0.97121048  0.98929230  0.04893300    -0.10300
C518        C  0.95149633  0.99747889  0.03707511    -0.04200
C519        C  0.95129208  0.00162229  0.01207405    -0.10300
C520        C  0.97154587  0.99747133  0.99823146     0.10700
C521        C  0.99174585  0.98886687  0.00997833    -0.02100
C522        C  0.99162516  0.98477962  0.03547717     0.10500
C523        C  0.01177872  0.97627834  0.04669532    -0.12100
C524        C  0.03168702  0.97150254  0.03304231    -0.12100
C525        C  0.03216239  0.97526486  0.00775431     0.10500
C526        C  0.01202440  0.98419334  0.99615183    -0.02100
C527        C  0.97202399  0.00132641  0.97299081    -0.12200
C528        C  0.99195959  0.99690658  0.95946314    -0.12200
C529        C  0.01203242  0.98824646  0.97066631     0.10700
C530        C  0.03214904  0.98339786  0.95701601    -0.10300
C531        C  0.05168425  0.97433879  0.96850913    -0.04200
C532        C  0.05204319  0.97008904  0.99354167    -0.10300
H533        H  0.01220761  0.97310126  0.06612091     0.07900
H534        H  0.04671039  0.96476163  0.04243850     0.07900
H535        H  0.95691388  0.00765355  0.96344048     0.08100
H536        H  0.99145434  0.00015982  0.94005526     0.08100
H537        H  0.93595970  0.00095538  0.04766155     0.04600
H538        H  0.06695555  0.97042716  0.95767831     0.04600
C539        C  0.97110483  0.97638886  0.45339098    -0.10300
C540        C  0.95126712  0.96858732  0.46544804    -0.04200
C541        C  0.95078392  0.96535658  0.49060815    -0.10300
C542        C  0.97100642  0.97006682  0.50439781     0.10700
C543        C  0.99148285  0.97787136  0.49230404    -0.02100
C544        C  0.99153865  0.98100510  0.46666701     0.10500
C545        C  0.01196200  0.98848687  0.45502523    -0.12100
C546        C  0.03212276  0.99284801  0.46831156    -0.12100
C547        C  0.03245915  0.99019447  0.49373712     0.10500
C548        C  0.01190086  0.98266123  0.50586509    -0.02100
C549        C  0.97126189  0.96755658  0.52982676    -0.12200
C550        C  0.99124134  0.97251907  0.54319036    -0.12200
C551        C  0.01168858  0.97999987  0.53155170     0.10700
C552        C  0.03201479  0.98493851  0.54488179    -0.10300
C553        C  0.05213891  0.99188259  0.53274801    -0.04200
C554        C  0.05280928  0.99457119  0.50747625    -0.10300
H555        H  0.01253146  0.99084268  0.43547179     0.07900
H556        H  0.04747930  0.99829551  0.45847583     0.07900
H557        H  0.95594297  0.96185662  0.53958342     0.08100
H558        H  0.99058946  0.97035392  0.56276577     0.08100
H559        H  0.93571384  0.96504267  0.45493365     0.04600
H560        H  0.06755868  0.99576825  0.54334072     0.04600
C561        C  0.96019334  0.00383998  0.11444089    -0.27100
C562        C  0.94906957  0.98350597  0.12223691     0.02600
C563        C  0.94944977  0.96372818  0.10719864     0.30600
C564        C  0.95932403  0.96499193  0.08392747    -0.18800
C565        C  0.96888038  0.98584807  0.07546112    -0.28200
C566        C  0.97000441  0.00511277  0.09114935     0.44700
C567        C  0.93455906  0.98408802  0.14445916     0.05900
O568        O  0.93878002  0.94361436  0.11445282    -0.56800
H569        H  0.95791212  0.95023509  0.07178621     0.18800
O570        O  0.97847339  0.02591562  0.08293166    -0.63500
H571        H  0.95979378  0.01924366  0.12573948     0.17200
C572        C  0.94427689  0.98789411  0.16756553     0.29500
C573        C  0.92988899  0.98900671  0.18814205    -0.24400
C574        C  0.90563997  0.98682681  0.18597335    -0.23700
C575        C  0.89597404  0.98351712  0.16260876     0.40900
C576        C  0.91042909  0.98195814  0.14218878    -0.26100
O577        O  0.96784842  0.98981297  0.17027185    -0.58000
H578        H  0.93778023  0.99154519  0.20584017     0.16600
O579        O  0.87246792  0.98141482  0.15946642    -0.59400
H580        H  0.90273212  0.97940209  0.12438658     0.15000
H581        H  0.99525899  0.02564957  0.08681153     0.46900
H582        H  0.97104700  0.00670404  0.17062780     0.42300
H583        H  0.86695072  0.99735564  0.15611429     0.45700
H584        H  0.95119936  0.93429614  0.12211991     0.37200
C585        C  0.95828643  0.96368177  0.38772795    -0.27100
C586        C  0.94956851  0.98519646  0.38024572     0.02600
C587        C  0.95223795  0.00464478  0.39552461     0.30600
C588        C  0.96180708  0.00203831  0.41873826    -0.18800
C589        C  0.96874590  0.98015661  0.42694356    -0.28200
C590        C  0.96762187  0.96103827  0.41106890     0.44700
C591        C  0.93513943  0.98652794  0.35805793     0.05900
O592        O  0.94411328  0.02593237  0.38855138    -0.56800
H593        H  0.96220611  0.01674969  0.43102191     0.18800
O594        O  0.97418922  0.93945372  0.41884932    -0.63500
H595        H  0.95629730  0.94857947  0.37616102     0.17200
C596        C  0.94404259  0.98065789  0.33503469     0.29500
C597        C  0.92953196  0.98100347  0.31460899    -0.24400
C598        C  0.90594265  0.98697023  0.31677614    -0.23700
C599        C  0.89710983  0.99280293  0.33997746     0.40900
C600        C  0.91171912  0.99268882  0.36028692    -0.26100
O601        O  0.96684531  0.97443946  0.33233630    -0.58000
H602        H  0.93677446  0.97641896  0.29704012     0.16600
O603        O  0.87428068  0.99873614  0.34309439    -0.59400
H604        H  0.90459697  0.99696579  0.37800812     0.15000
H605        H  0.95979179  0.93207477  0.42506324     0.46900
H606        H  0.97552581  0.98926578  0.33123321     0.42300
H607        H  0.86629560  0.98411809  0.34764926     0.45700
H608        H  0.95626564  0.03236171  0.37766477     0.37200
C609        C  0.05711918  0.00445774  0.84011700    -0.27100
C610        C  0.06066611  0.98783347  0.85826886     0.02600
C611        C  0.07733115  0.97038510  0.85462587     0.30600
C612        C  0.09026795  0.96976993  0.83310760    -0.18800
C613        C  0.08697747  0.98648671  0.81489748    -0.28200
C614        C  0.06997583  0.00380687  0.81846146     0.44700
C615        C  0.04829273  0.98942990  0.88178203     0.05900
O616        O  0.08151733  0.95416081  0.87231253    -0.56800
H617        H  0.10317317  0.95632574  0.83087299     0.18800
O618        O  0.06614547  0.02055187  0.80124726    -0.63500
H619        H  0.04444854  0.01805358  0.84282603     0.17200
C620        C  0.05233984  0.00827651  0.89755387     0.29500
C621        C  0.04514570  0.00699350  0.92184914    -0.24400
C622        C  0.03380438  0.98714043  0.93051555    -0.23700
C623        C  0.02794182  0.96922740  0.91428544     0.40900
C624        C  0.03514463  0.97047223  0.88999419    -0.26100
O625        O  0.06473494  0.02724532  0.88987695    -0.58000
H626        H  0.04973857  0.02082715  0.93432448     0.16600
O627        O  0.01635833  0.94990819  0.92236715    -0.59400
H628        H  0.03171541  0.95599798  0.87791849     0.15000
H629        H  0.05340778  0.01438568  0.79096871     0.46900
H630        H  0.08123234  0.02325655  0.89269868     0.42300
H631        H  0.02863964  0.93859040  0.92651330     0.45700
H632        H  0.09314938  0.96139560  0.88325129     0.37200
C633        C  0.05179179  0.97563068  0.66431190    -0.27100
C634        C  0.05812702  0.98976344  0.64466569     0.02600
C635        C  0.07644562  0.00572466  0.64740761     0.30600
C636        C  0.08884692  0.00666411  0.66921746    -0.18800
C637        C  0.08329247  0.99179253  0.68860295    -0.28200
C638        C  0.06401824  0.97673612  0.68629547     0.44700
C639        C  0.04696736  0.98667604  0.62068972     0.05900
O640        O  0.08299905  0.01981369  0.62848433    -0.56800
H641        H  0.10337490  0.01854253  0.67061437     0.18800
O642        O  0.05768141  0.96216246  0.70487477    -0.63500
H643        H  0.03763554  0.96336956  0.66240467     0.17200
C644        C  0.05013252  0.96602181  0.60740753     0.29500
C645        C  0.04337316  0.96490591  0.58296952    -0.24400
C646        C  0.03324362  0.98413615  0.57169828    -0.23700
C647        C  0.02878170  0.00425089  0.58537345     0.40900
C648        C  0.03564980  0.00543826  0.60974866    -0.26100
O649        O  0.06185566  0.94772503  0.61742150    -0.58000
H650        H  0.04735252  0.94956194  0.57237603     0.16600
O651        O  0.01961038  0.02350510  0.57445959    -0.59400
H652        H  0.03325088  0.02143972  0.61977877     0.15000
H653        H  0.04571401  0.97074571  0.71419877     0.46900
H654        H  0.04962593  0.93699282  0.62333446     0.42300
H655        H  0.00256564  0.02158830  0.57588339     0.45700
H656        H  0.09384917  0.01039623  0.61855868     0.37200
C657        C  0.16087053  0.94557687  0.00049071    -0.27100
C658        C  0.14320662  0.93465790  0.01393809     0.02600
C659        C  0.14846333  0.91442602  0.02704666     0.30600
C660        C  0.17074645  0.90488763  0.02581850    -0.18800
C661        C  0.18818261  0.91504519  0.01133393    -0.28200
C662        C  0.18315795  0.93588294  0.99898643     0.44700
C663        C  0.11893033  0.94312493  0.01217576     0.05900
O664        O  0.13168303  0.90339256  0.04048461    -0.56800
H665        H  0.17408145  0.88893021  0.03555379     0.18800
O666        O  0.19976303  0.94680901  0.98520897    -0.63500
H667        H  0.15709617  0.96112261  0.99021252     0.17200
C668        C  0.11281538  0.96586335  0.01898498     0.29500
C669        C  0.09022781  0.97400580  0.01473001    -0.24400
C670        C  0.07365265  0.95978759  0.00339145    -0.23700
C671        C  0.07957423  0.93683286  0.99733423     0.40900
C672        C  0.10197604  0.92863082  0.00185562    -0.26100
O673        O  0.12884351  0.98024271  0.02964707    -0.58000
H674        H  0.08599036  0.99180331  0.01913721     0.16600
O675        O  0.06400359  0.92277365  0.98551174    -0.59400
H676        H  0.10645204  0.91119625  0.99624095     0.15000
H677        H  0.19645093  0.94220532  0.96815129     0.46900
H678        H  0.13418339  0.99072057  0.01646470     0.42300
H679        H  0.05415687  0.91607507  0.99856295     0.45700
H680        H  0.13264627  0.91041981  0.05694455     0.37200
C681        C  0.22391629  0.85013560  0.72985776    -0.27100
C682        C  0.19971215  0.85242810  0.73181470     0.02600
C683        C  0.18614760  0.83239322  0.73571606     0.30600
C684        C  0.19689706  0.81091479  0.73945929    -0.18800
C685        C  0.22115275  0.80907721  0.73964286    -0.28200
C686        C  0.23465746  0.82871746  0.73400733     0.44700
C687        C  0.18911375  0.87592499  0.73304357     0.05900
O688        O  0.16249461  0.83392112  0.73782438    -0.56800
H689        H  0.18633165  0.79602882  0.74422613     0.18800
O690        O  0.25840746  0.82739431  0.73389986    -0.63500
H691        H  0.23460417  0.86528525  0.72654554     0.17200
C692        C  0.19609857  0.89173478  0.75120864     0.29500
C693        C  0.18497203  0.91316619  0.75360869    -0.24400
C694        C  0.16677052  0.91947536  0.73802570    -0.23700
C695        C  0.16009851  0.90381541  0.71941272     0.40900
C696        C  0.17113081  0.88221832  0.71718152    -0.26100
O697        O  0.21291866  0.88580899  0.76768362    -0.58000
H698        H  0.19039712  0.92471459  0.76810379     0.16600
O699        O  0.14253299  0.90915349  0.70359032    -0.59400
H700        H  0.16553722  0.87028124  0.70310359     0.15000
H701        H  0.26326902  0.83215604  0.75049251     0.46900
H702        H  0.22711699  0.89403820  0.76219544     0.42300
H703        H  0.15025743  0.91681652  0.68958598     0.45700
H704        H  0.15952305  0.83669295  0.75538621     0.37200
C705        C  0.26489615  0.79365956  0.85187937    -0.27100
C706        C  0.24394557  0.79487619  0.86497373     0.02600
C707        C  0.22357430  0.78585557  0.85442365     0.30600
C708        C  0.22412370  0.77683464  0.83076034    -0.18800
C709        C  0.24485319  0.77653051  0.81735774    -0.28200
C710        C  0.26542461  0.78458476  0.82819773     0.44700
C711        C  0.24326436  0.80702965  0.88881548     0.05900
O712        O  0.20288125  0.78659080  0.86674815    -0.56800
H713        H  0.20810701  0.77107241  0.82237201     0.18800
O714        O  0.28571974  0.78526783  0.81515092    -0.63500
H715        H  0.28066138  0.80079619  0.85958881     0.17200
C716        C  0.25764751  0.80017097  0.90813752     0.29500
C717        C  0.25779820  0.81282727  0.92993904    -0.24400
C718        C  0.24395640  0.83268785  0.93281561    -0.23700
C719        C  0.22904024  0.83914753  0.91362586     0.40900
C720        C  0.22876512  0.82632513  0.89191703    -0.26100
O721        O  0.27124376  0.78080199  0.90603395    -0.58000
H722        H  0.26917253  0.80727024  0.94447090     0.16600
O723        O  0.21455732  0.85784526  0.91586641    -0.59400
H724        H  0.21757043  0.83182213  0.87719648     0.15000
H725        H  0.29199593  0.76931080  0.81599211     0.46900
H726        H  0.28721693  0.78669995  0.90333743     0.42300
H727        H  0.22301223  0.87093369  0.90818921     0.45700
H728        H  0.20242351  0.77214340  0.87649454     0.37200
C729        C  0.24070219  0.68115318  0.58685817    -0.27100
C730        C  0.24118142  0.66880811  0.60884359     0.02600
C731        C  0.24391543  0.64459171  0.60833791     0.30600
C732        C  0.24620294  0.63305105  0.58615387    -0.18800
C733        C  0.24576951  0.64524767  0.56407346    -0.28200
C734        C  0.24279486  0.66953343  0.56451593     0.44700
C735        C  0.23997148  0.68105257  0.63246461     0.05900
O736        O  0.24471702  0.63203969  0.62952077    -0.56800
H737        H  0.24829306  0.61439918  0.58629511     0.18800
O738        O  0.24266411  0.68215483  0.54336882    -0.63500
H739        H  0.23870081  0.69981428  0.58703590     0.17200
C740        C  0.25735438  0.69697920  0.63925757     0.29500
C741        C  0.25852486  0.70491283  0.66332310    -0.24400
C742        C  0.24237953  0.69725997  0.68066807    -0.23700
C743        C  0.22421821  0.68243100  0.67355075     0.40900
C744        C  0.22297250  0.67458883  0.64949919    -0.26100
O745        O  0.27444599  0.70320510  0.62312177    -0.58000
H746        H  0.27277649  0.71603550  0.66879069     0.16600
O747        O  0.20813469  0.67490499  0.69022970    -0.59400
H748        H  0.20940433  0.66248416  0.64442005     0.15000
H749        H  0.22604191  0.68419573  0.53930488     0.46900
H750        H  0.26974776  0.71859849  0.61686244     0.42300
H751        H  0.21375368  0.65954906  0.69571590     0.45700
H752        H  0.26127948  0.63206164  0.63436702     0.37200
C753        C  0.28141984  0.68703485  0.35126608    -0.27100
C754        C  0.26188575  0.68781028  0.36655121     0.02600
C755        C  0.24200505  0.69991666  0.35891310     0.30600
C756        C  0.24120956  0.70939632  0.33553440    -0.18800
C757        C  0.25992868  0.70667473  0.31950758    -0.28200
C758        C  0.28044332  0.69620422  0.32772413     0.44700
C759        C  0.26137676  0.67391935  0.38915676     0.05900
O760        O  0.22260567  0.70092609  0.37337573    -0.56800
H761        H  0.22518137  0.71700575  0.32912523     0.18800
O762        O  0.29895513  0.69341385  0.31227425    -0.63500
H763        H  0.29694363  0.67808678  0.35707540     0.17200
C764        C  0.26474616  0.64976317  0.38831651     0.29500
C765        C  0.26256176  0.63656958  0.40955096    -0.24400
C766        C  0.25711314  0.64712106  0.43189867    -0.23700
C767        C  0.25373347  0.67134616  0.43265429     0.40900
C768        C  0.25598235  0.68451588  0.41141441    -0.26100
O769        O  0.26896332  0.63875892  0.36658811    -0.58000
H770        H  0.26504854  0.61799511  0.40845198     0.16600
O771        O  0.24795108  0.68236223  0.45395122    -0.59400
H772        H  0.25321338  0.70306364  0.41225539     0.15000
H773        H  0.29676340  0.67791019  0.30478549     0.46900
H774        H  0.28584535  0.63551357  0.36652701     0.42300
H775        H  0.23074977  0.68237435  0.45433888     0.45700
H776        H  0.21351428  0.68683307  0.36928179     0.37200
C777        C  0.26895988  0.77063007  0.13388439    -0.27100
C778        C  0.25109176  0.78503331  0.12557923     0.02600
C779        C  0.23232552  0.79012645  0.14109957     0.30600
C780        C  0.23241233  0.78217751  0.16514706    -0.18800
C781        C  0.25111741  0.76922104  0.17397213    -0.28200
C782        C  0.26906585  0.76274136  0.15799441     0.44700
C783        C  0.25360913  0.79736490  0.10216071     0.05900
O784        O  0.21475198  0.80434352  0.13348772    -0.56800
H785        H  0.21877418  0.78764706  0.17746745     0.18800
O786        O  0.28757441  0.75015373  0.16629674    -0.63500
H787        H  0.28349603  0.76665550  0.12207848     0.17200
C788        C  0.27050986  0.81483306  0.09954769     0.29500
C789        C  0.27110137  0.82841252  0.07846804    -0.24400
C790        C  0.25484333  0.82497683  0.05975047    -0.23700
C791        C  0.23854601  0.80672705  0.06201818     0.40900
C792        C  0.23788540  0.79327332  0.08322698    -0.26100
O793        O  0.28596397  0.81935475  0.11794056    -0.58000
H794        H  0.28385106  0.84218818  0.07717951     0.16600
O795        O  0.22271963  0.80226716  0.04398800    -0.59400
H796        H  0.22479852  0.77987297  0.08510467     0.15000
H797        H  0.29914499  0.76181827  0.17171061     0.46900
H798        H  0.27790767  0.83039971  0.12890012     0.42300
H799        H  0.23045613  0.79101695  0.03300754     0.45700
H800        H  0.21983606  0.82025180  0.13784978     0.37200
C801        C  0.35432789  0.92191068  0.97433562    -0.27100
C802        C  0.36119606  0.93589990  0.99394151     0.02600
C803        C  0.34603700  0.93871938  0.01382892     0.30600
C804        C  0.32440619  0.92755228  0.01401530    -0.18800
C805        C  0.31746738  0.91326258  0.99454786    -0.28200
C806        C  0.33264038  0.91076506  0.97441758     0.44700
C807        C  0.38481972  0.94616675  0.99458085     0.05900
O808        O  0.35249502  0.95189824  0.03350598    -0.56800
H809        H  0.31322580  0.92976110  0.02971861     0.18800
O810        O  0.32682115  0.89695932  0.95500782    -0.63500
H811        H  0.36594459  0.91943308  0.95902323     0.17200
C812        C  0.40426257  0.93200726  0.99868998     0.29500
C813        C  0.42605604  0.94204604  0.00290656    -0.24400
C814        C  0.42880113  0.96619607  0.00303911    -0.23700
C815        C  0.40964593  0.98034833  0.99762969     0.40900
C816        C  0.38778250  0.97031658  0.99356091    -0.26100
O817        O  0.40185833  0.90838977  0.99998998    -0.58000
H818        H  0.44059381  0.93101495  0.00743625     0.16600
O819        O  0.41181769  0.00401794  0.99788205    -0.59400
H820        H  0.37294689  0.98140615  0.99048790     0.15000
H821        H  0.31895613  0.90740827  0.94333873     0.46900
H822        H  0.39806545  0.90510537  0.01727413     0.42300
H823        H  0.41859418  0.00806342  0.98182064     0.45700
H824        H  0.36107688  0.94118088  0.04431985     0.37200
C825        C  0.27076459  0.85382376  0.24758095    -0.27100
C826        C  0.29421170  0.85701017  0.25352997     0.02600
C827        C  0.30832530  0.83736726  0.25705445     0.30600
C828        C  0.29928922  0.81504514  0.25314104    -0.18800
C829        C  0.27610675  0.81197129  0.24604708    -0.28200
C830        C  0.26166566  0.83155397  0.24405138     0.44700
C831        C  0.30414633  0.88081228  0.25443790     0.05900
O832        O  0.33125476  0.83986064  0.26316123    -0.56800
H833        H  0.31068036  0.80020445  0.25445214     0.18800
O834        O  0.23888511  0.82912917  0.23731865    -0.63500
H835        H  0.25962486  0.86871381  0.24506360     0.17200
C836        C  0.30381406  0.89520909  0.23372455     0.29500
C837        C  0.31446661  0.91708675  0.23436733    -0.24400
C838        C  0.32557170  0.92513254  0.25555462    -0.23700
C839        C  0.32514254  0.91094934  0.27656074     0.40900
C840        C  0.31470467  0.88896692  0.27578290    -0.26100
O841        O  0.29360770  0.88780727  0.21253366    -0.58000
H842        H  0.31441759  0.92757579  0.21802091     0.16600
O843        O  0.33539164  0.91805541  0.29782390    -0.59400
H844        H  0.31493230  0.87817845  0.29191627     0.15000
H845        H  0.23058422  0.82459743  0.25242151     0.46900
H846        H  0.30607488  0.87977678  0.20339136     0.42300
H847        H  0.32296454  0.92608647  0.30702888     0.45700
H848        H  0.33961192  0.84133754  0.24743453     0.37200
C849        C  0.46771705  0.97254919  0.11711242    -0.27100
C850        C  0.45485498  0.99126056  0.12635680     0.02600
C851        C  0.45053365  0.01048632  0.11121794     0.30600
C852        C  0.45759116  0.01007167  0.08683300    -0.18800
C853        C  0.46884914  0.99062196  0.07723117    -0.28200
C854        C  0.47462790  0.97211327  0.09266177     0.44700
C855        C  0.44314981  0.98924035  0.15035254     0.05900
O856        O  0.43789813  0.02898489  0.11954541    -0.56800
H857        H  0.45289176  0.02428813  0.07496792     0.18800
O858        O  0.48528113  0.95274082  0.08352450    -0.63500
H859        H  0.47124912  0.95768358  0.12853754     0.17200
C860        C  0.42766099  0.97079411  0.15481690     0.29500
C861        C  0.41438052  0.97042980  0.17612433    -0.24400
C862        C  0.41595651  0.98843873  0.19328006    -0.23700
C863        C  0.43221210  0.00644281  0.18929491     0.40900
C864        C  0.44556011  0.00676671  0.16791884    -0.26100
O865        O  0.42453787  0.95354448  0.13790590    -0.58000
H866        H  0.40218703  0.95633036  0.17876425     0.16600
O867        O  0.43454669  0.02433165  0.20558068    -0.59400
H868        H  0.45743270  0.02104659  0.16476277     0.15000
H869        H  0.50211468  0.95626595  0.08412281     0.46900
H870        H  0.41228589  0.95933828  0.12683574     0.42300
H871        H  0.44679188  0.01927073  0.21704801     0.45700
H872        H  0.42147633  0.02490729  0.11623807     0.37200
C873        C  0.46577348  0.00537027  0.39160031    -0.27100
C874        C  0.45010483  0.98762952  0.38537589     0.02600
C875        C  0.44443861  0.97066543  0.40284743     0.30600
C876        C  0.45321816  0.97243940  0.42651796    -0.18800
C877        C  0.46747261  0.99111815  0.43318652    -0.28200
C878        C  0.47427719  0.00731000  0.41542019     0.44700
C879        C  0.43748463  0.98855868  0.36187351     0.05900
O880        O  0.42893896  0.95331029  0.39751760    -0.47200
H881        H  0.44748399  0.96017640  0.44021174     0.18800
O882        O  0.48799654  0.02586804  0.42157034    -0.63500
H883        H  0.47034480  0.01849181  0.37832164     0.17200
C884        C  0.42355851  0.00782651  0.35621587     0.29500
C885        C  0.41024325  0.00792233  0.33494348    -0.24400
C886        C  0.41051258  0.98897298  0.31887784    -0.23700
C887        C  0.42467646  0.96974415  0.32442923     0.40900
C888        C  0.43787857  0.96960184  0.34586210    -0.26100
O889        O  0.42238261  0.02646207  0.37170414    -0.58000
H890        H  0.39954372  0.02287346  0.33110237     0.16600
O891        O  0.42500138  0.95057845  0.30963369    -0.59400
H892        H  0.44829956  0.95455328  0.35011893     0.15000
H893        H  0.47704691  0.03838922  0.42608327     0.46900
H894        H  0.41049858  0.02221171  0.38400730     0.42300
H895        H  0.43868489  0.95274363  0.29889576     0.45700
H896        H  0.41342684  0.95999324  0.40087793     0.37200
C897        C  0.55700112  0.98179324  0.84112341    -0.27100
C898        C  0.56389431  0.99478148  0.86143223     0.02600
C899        C  0.58507375  0.00692360  0.86081889     0.30600
C900        C  0.59913074  0.00593464  0.84007716    -0.18800
C901        C  0.59226711  0.99314086  0.81951750    -0.28200
C902        C  0.57094315  0.98097788  0.82019346     0.44700
C903        C  0.54986798  0.99453389  0.88394426     0.05900
O904        O  0.59259591  0.01904349  0.88083569    -0.56800
H905        H  0.61543292  0.01532409  0.84010159     0.18800
O906        O  0.56356139  0.96817895  0.80060667    -0.63500
H907        H  0.54081844  0.97220192  0.84155590     0.17200
C908        C  0.53939893  0.01492186  0.89267233     0.29500
C909        C  0.53076810  0.01571711  0.91649797    -0.24400
C910        C  0.53226165  0.99623010  0.93162858    -0.23700
C911        C  0.54097315  0.97531873  0.92221280     0.40900
C912        C  0.54967832  0.97454432  0.89842753    -0.26100
O913        O  0.53907854  0.03456857  0.87865765    -0.58000
H914        H  0.52436346  0.03197181  0.92372412     0.16600
O915        O  0.54321168  0.95627924  0.93692358    -0.59400
H916        H  0.55779527  0.95879976  0.89189573     0.15000
H917        H  0.56908466  0.95220589  0.80376428     0.46900
H918        H  0.52355990  0.03464833  0.87090174     0.42300
H919        H  0.52822984  0.94790476  0.93551973     0.45700
H920        H  0.58867018  0.03544661  0.87747086     0.37200
C921        C  0.53983774  0.98214669  0.61871183    -0.27100
C922        C  0.55206544  0.00247499  0.62467482     0.02600
C923        C  0.55325698  0.02058597  0.60748333     0.30600
C924        C  0.54408489  0.01740835  0.58412223    -0.18800
C925        C  0.53345730  0.99640022  0.57768868    -0.28200
C926        C  0.53051401  0.97908048  0.59541141     0.44700
C927        C  0.56594061  0.00330463  0.64742250     0.05900
O928        O  0.56464338  0.04086631  0.61282018    -0.56800
H929        H  0.54664118  0.03074776  0.57049923     0.18800
O930        O  0.52044715  0.95827879  0.58945040    -0.63500
H931        H  0.53892508  0.96793937  0.63154873     0.17200
C932        C  0.55602793  0.99820000  0.67024169     0.29500
C933        C  0.57006498  0.99721307  0.69103460    -0.24400
C934        C  0.59415437  0.00085466  0.68944739    -0.23700
C935        C  0.60398591  0.00629574  0.66660782     0.40900
C936        C  0.58990156  0.00755222  0.64592616    -0.26100
O937        O  0.53257359  0.99465738  0.67244764    -0.58000
H938        H  0.56206467  0.99317726  0.70839271     0.16600
O939        O  0.62727867  0.01069830  0.66426412    -0.59400
H940        H  0.59788673  0.01123056  0.62846845     0.15000
H941        H  0.50350482  0.96114558  0.59005270     0.46900
H942        H  0.53066822  0.97781062  0.67543538     0.42300
H943        H  0.63418219  0.99584575  0.65880979     0.45700
H944        H  0.55346686  0.05008058  0.62254639     0.37200
C945        C  0.30462710  0.13993394  0.24593742    -0.27100
C946        C  0.29096859  0.12025529  0.24108853     0.02600
C947        C  0.26690391  0.12307572  0.23760837     0.30600
C948        C  0.25671098  0.14500540  0.24045784    -0.18800
C949        C  0.27027349  0.16442319  0.24651637    -0.28200
C950        C  0.29445418  0.16183139  0.24866936     0.44700
C951        C  0.30182860  0.09682300  0.24136585     0.05900
O952        O  0.25307067  0.10435077  0.23239076    -0.56800
H953        H  0.23803231  0.14663699  0.23925901     0.18800
O954        O  0.30803692  0.18027361  0.25548242    -0.63500
H955        H  0.32311386  0.13811787  0.24885058     0.17200
C956        C  0.32060127  0.09144744  0.22595609     0.29500
C957        C  0.33179764  0.06996811  0.22788286    -0.24400
C958        C  0.32466797  0.05337687  0.24516762    -0.23700
C959        C  0.30544562  0.05859020  0.26018985     0.40900
C960        C  0.29418817  0.08006651  0.25813473    -0.26100
O961        O  0.32831895  0.10719524  0.20908006    -0.58000
H962        H  0.34640270  0.06647401  0.21601004     0.16600
O963        O  0.29749748  0.04290873  0.27701534    -0.59400
H964        H  0.27981053  0.08390747  0.27020191     0.15000
H965        H  0.31162891  0.18856786  0.24012170     0.46900
H966        H  0.31786723  0.10527136  0.19488849     0.42300
H967        H  0.30542454  0.04708838  0.29243284     0.45700
H968        H  0.25500085  0.10169350  0.21465437     0.37200
C969        C  0.22208494  0.28376274  0.13812279    -0.27100
C970        C  0.24443191  0.28829147  0.12914858     0.02600
C971        C  0.26379759  0.28156337  0.14304615     0.30600
C972        C  0.26065584  0.27203024  0.16633216    -0.18800
C973        C  0.23828379  0.26893093  0.17595026    -0.28200
C974        C  0.21893324  0.27412779  0.16126778     0.44700
C975        C  0.24716678  0.30196069  0.10643566     0.05900
O976        O  0.28585604  0.28530659  0.13451549    -0.56800
H977        H  0.27569433  0.26845994  0.17750267     0.18800
O978        O  0.19684783  0.27166317  0.17024669    -0.63500
H979        H  0.20700847  0.28894379  0.12773495     0.17200
C980        C  0.23769995  0.29420129  0.08429027     0.29500
C981        C  0.23881328  0.30830072  0.06356477    -0.24400
C982        C  0.24908144  0.33043218  0.06451540    -0.23700
C983        C  0.25899683  0.33799084  0.08666465     0.40900
C984        C  0.25791816  0.32380945  0.10735766    -0.26100
O985        O  0.22773010  0.27264530  0.08264523    -0.58000
H986        H  0.23138127  0.30190377  0.04673146     0.16600
O987        O  0.26908878  0.35947076  0.08858933    -0.59400
H988        H  0.26500942  0.33014591  0.12438529     0.15000
H989        H  0.19267049  0.25524368  0.16714879     0.46900
H990        H  0.21076186  0.27541113  0.08275706     0.42300
H991        H  0.28592597  0.35679939  0.08620662     0.45700
H992        H  0.28918937  0.27188715  0.12377765     0.37200
C993        C  0.15148463  0.04626283  0.47091416    -0.27100
C994        C  0.14239896  0.03504025  0.49148079     0.02600
C995        C  0.15507140  0.03570302  0.51341934     0.30600
C996        C  0.17628193  0.04758333  0.51461671    -0.18800
C997        C  0.18535880  0.05907709  0.49413779    -0.28200
C998        C  0.17279854  0.05805710  0.47203418     0.44700
C999        C  0.11934311  0.02338505  0.49045756     0.05900
O1000       O  0.14658673  0.02523781  0.53402511    -0.56800
H1001       H  0.18547093  0.04807828  0.53180365     0.18800
O1002       O  0.18073339  0.06915932  0.45157396    -0.63500
H1003       H  0.14196546  0.04594286  0.45391978     0.17200
C1004       C  0.09903423  0.03593150  0.48502145     0.29500
C1005       C  0.07713858  0.02567347  0.48842404    -0.24400
C1006       C  0.07518319  0.00285000  0.49701090    -0.23700
C1007       C  0.09551323  0.98973813  0.50041416     0.40900
C1008       C  0.11733115  0.00003141  0.49727227    -0.26100
O1009       O  0.10035851  0.05866657  0.47789566    -0.58000
H1010       H  0.06169414  0.03604945  0.48594845     0.16600
O1011       O  0.09421566  0.96732449  0.50859903    -0.59400
H1012       H  0.13275718  0.99003684  0.50118910     0.15000
H1013       H  0.19000635  0.05740836  0.44269856     0.46900
H1014       H  0.09974803  0.06778767  0.49320405     0.42300
H1015       H  0.09017935  0.95794927  0.49405228     0.45700
H1016       H  0.13612987  0.03683138  0.54157258     0.37200
C1017       C  0.34388588  0.03792808  0.49809758    -0.27100
C1018       C  0.36049018  0.04827377  0.51337674     0.02600
C1019       C  0.35416222  0.06783113  0.52719079     0.30600
C1020       C  0.33176501  0.07698077  0.52521753    -0.18800
C1021       C  0.31521914  0.06692620  0.50954776    -0.28200
C1022       C  0.32148834  0.04707913  0.49606299     0.44700
C1023       C  0.38464963  0.03932734  0.51341641     0.05900
O1024       O  0.36981346  0.07831773  0.54246718    -0.56800
H1025       H  0.32745119  0.09221302  0.53583200     0.18800
O1026       O  0.30606123  0.03666774  0.48050026    -0.63500
H1027       H  0.34852638  0.02307266  0.48704794     0.17200
C1028       C  0.38918844  0.01552210  0.51660463     0.29500
C1029       C  0.41153644  0.00688410  0.51260386    -0.24400
C1030       C  0.42965282  0.02176380  0.50577167    -0.23700
C1031       C  0.42556784  0.04570921  0.50417273     0.40900
C1032       C  0.40317758  0.05435973  0.50794170    -0.26100
O1033       O  0.37168011  0.00041594  0.52256872    -0.58000
H1034       H  0.41449907  0.98837735  0.51362937     0.16600
O1035       O  0.44295917  0.06052918  0.49712906    -0.59400
H1036       H  0.40004310  0.07267401  0.50523069     0.15000
H1037       H  0.30906618  0.04382409  0.46438175     0.46900
H1038       H  0.37088108  0.00072923  0.54060792     0.42300
H1039       H  0.45155921  0.06419167  0.51228647     0.45700
H1040       H  0.36905769  0.06932526  0.55782680     0.37200
C1041       C  0.22569911  0.17406027  0.40970699    -0.27100
C1042       C  0.24430038  0.17370145  0.39315025     0.02600
C1043       C  0.26407989  0.16045530  0.39886572     0.30600
C1044       C  0.26484346  0.14758648  0.42045233    -0.18800
C1045       C  0.24603072  0.14745344  0.43674352    -0.28200
C1046       C  0.22637713  0.16102130  0.43124644     0.44700
C1047       C  0.24235090  0.18554342  0.36912863     0.05900
O1048       O  0.28251814  0.15933611  0.38308935    -0.56800
H1049       H  0.28013946  0.13735413  0.42423852     0.18800
O1050       O  0.20747534  0.16126898  0.44644480    -0.63500
H1051       H  0.21036676  0.18415461  0.40568822     0.17200
C1052       C  0.22372351  0.18049377  0.35331529     0.29500
C1053       C  0.22400530  0.18870129  0.32931825    -0.24400
C1054       C  0.24269184  0.20193923  0.32065300    -0.23700
C1055       C  0.26057012  0.20825051  0.33677402     0.40900
C1056       C  0.26028493  0.20014122  0.36084346    -0.26100
O1057       O  0.20593599  0.16623590  0.36057249    -0.58000
H1058       H  0.21034666  0.18342646  0.31694166     0.16600
O1059       O  0.27931967  0.22070828  0.32861690    -0.59400
H1060       H  0.27464608  0.20439214  0.37275545     0.15000
H1061       H  0.19727237  0.14860565  0.44049863     0.46900
H1062       H  0.21145064  0.15027364  0.35726628     0.42300
H1063       H  0.27445479  0.23715281  0.32952594     0.45700
H1064       H  0.27877849  0.14644439  0.37178200     0.37200
C1065       C  0.20291654  0.07584945  0.74310146    -0.27100
C1066       C  0.19780474  0.09108609  0.76233752     0.02600
C1067       C  0.18123948  0.08440081  0.77983774     0.30600
C1068       C  0.16967491  0.06309964  0.77759507    -0.18800
C1069       C  0.17426444  0.04807635  0.75793764    -0.28200
C1070       C  0.19130181  0.05458679  0.74075512     0.44700
C1071       C  0.20847813  0.11457322  0.76261505     0.05900
O1072       O  0.17593466  0.09875172  0.79897242    -0.56800
H1073       H  0.15670124  0.05857593  0.79108452     0.18800
O1074       O  0.19670932  0.04041770  0.72150774    -0.63500
H1075       H  0.21540527  0.08081625  0.72928364     0.17200
C1076       C  0.23270974  0.11754617  0.76106696     0.29500
C1077       C  0.24211588  0.13967228  0.75710278    -0.24400
C1078       C  0.22762404  0.15902383  0.75474840    -0.23700
C1079       C  0.20355973  0.15630407  0.75785494     0.40900
C1080       C  0.19413328  0.13420160  0.76173600    -0.26100
O1081       O  0.24724499  0.09887138  0.76317665    -0.58000
H1082       H  0.26068500  0.14158946  0.75472430     0.16600
O1083       O  0.18900003  0.17485310  0.75507258    -0.59400
H1084       H  0.17545775  0.13223229  0.76265652     0.15000
H1085       H  0.18729169  0.04620113  0.70770562     0.46900
H1086       H  0.25315777  0.09588497  0.74649467     0.42300
H1087       H  0.18603864  0.18057426  0.77182570     0.45700
H1088       H  0.18626678  0.09382025  0.81240952     0.37200
C1089       C  0.23365736  0.31729898  0.89486914    -0.27100
C1090       C  0.24320217  0.29502817  0.89659859     0.02600
C1091       C  0.25391861  0.28828236  0.91848021     0.30600
C1092       C  0.25521162  0.30384298  0.93804249    -0.18800
C1093       C  0.24594118  0.32630469  0.93619115    -0.28200
C1094       C  0.23500580  0.33288789  0.91430153     0.44700
C1095       C  0.24408542  0.28037900  0.87442236     0.05900
O1096       O  0.26346785  0.26666320  0.92081436    -0.56800
H1097       H  0.26363841  0.29831845  0.95465963     0.18800
O1098       O  0.22564946  0.35454665  0.91154317    -0.63500
H1099       H  0.22582456  0.32299796  0.87798918     0.17200
C1100       C  0.22422621  0.27708931  0.85981439     0.29500
C1101       C  0.22660190  0.26903351  0.83588803    -0.24400
C1102       C  0.24858866  0.26382584  0.82652511    -0.23700
C1103       C  0.26803410  0.26466738  0.84191063     0.40900
C1104       C  0.26573587  0.27299497  0.86568083    -0.26100
O1105       O  0.20269573  0.28333434  0.86815137    -0.58000
H1106       H  0.21153701  0.26838723  0.82413123     0.16600
O1107       O  0.28969070  0.25953323  0.83309467    -0.59400
H1108       H  0.28121107  0.27545935  0.87655508     0.15000
H1109       H  0.23796017  0.36389315  0.90356129     0.46900
H1110       H  0.19659586  0.26938570  0.87655393     0.42300
H1111       H  0.29082024  0.24241138  0.83396397     0.45700
H1112       H  0.25049042  0.25649081  0.92602704     0.37200
C1113       C  0.23117407  0.15727408  0.60527754    -0.27100
C1114       C  0.25031826  0.17191492  0.60921435     0.02600
C1115       C  0.26753429  0.17368695  0.59112672     0.30600
C1116       C  0.26547059  0.16091735  0.56954563    -0.18800
C1117       C  0.24647581  0.14600204  0.56570540    -0.28200
C1118       C  0.22914825  0.14439375  0.58376840     0.44700
C1119       C  0.25269361  0.18393882  0.63294695     0.05900
O1120       O  0.28662901  0.18754222  0.59452932    -0.56800
H1121       H  0.27910997  0.16227409  0.55601788     0.18800
O1122       O  0.21032546  0.13008492  0.58079210    -0.63500
H1123       H  0.21799514  0.15536853  0.61922879     0.17200
C1124       C  0.23467452  0.19791295  0.64210758     0.29500
C1125       C  0.23532057  0.20561614  0.66629557    -0.24400
C1126       C  0.25368872  0.19934295  0.68157064    -0.23700
C1127       C  0.27250007  0.18684421  0.67196113     0.40900
C1128       C  0.27201005  0.17935641  0.64770765    -0.26100
O1129       O  0.21615728  0.20363291  0.62766551    -0.58000
H1130       H  0.22070370  0.21513529  0.67361186     0.16600
O1131       O  0.29083122  0.18087665  0.68653750    -0.59400
H1132       H  0.28602397  0.16865874  0.64092687     0.15000
H1133       H  0.19839064  0.13980844  0.57283221     0.46900
H1134       H  0.20299784  0.19412446  0.63370961     0.42300
H1135       H  0.28707028  0.16517059  0.69273440     0.45700
H1136       H  0.28169895  0.20324490  0.58942143     0.37200
C1137       C  0.40504419  0.54704684  0.49155875    -0.27100
C1138       C  0.38407612  0.53458106  0.49206137     0.02600
C1139       C  0.38469732  0.51025032  0.49418061     0.30600
C1140       C  0.40592536  0.49893168  0.49727398    -0.18800
C1141       C  0.42672249  0.51156515  0.49822057    -0.28200
C1142       C  0.42626578  0.53570523  0.49469587     0.44700
C1143       C  0.36164223  0.54713874  0.49228857     0.05900
O1144       O  0.36456922  0.49752395  0.49470085    -0.56800
H1145       H  0.40606259  0.48039077  0.50036918     0.18800
O1146       O  0.44635260  0.54848205  0.49564197    -0.63500
H1147       H  0.40486975  0.56573354  0.48968943     0.17200
C1148       C  0.35685796  0.56382507  0.51037132     0.29500
C1149       C  0.33529294  0.57491221  0.51094068    -0.24400
C1150       C  0.31797340  0.56936550  0.49389217    -0.23700
C1151       C  0.32286187  0.55275551  0.47570642     0.40900
C1152       C  0.34451080  0.54179121  0.47505055    -0.26100
O1153       O  0.37295843  0.56904641  0.52793246    -0.58000
H1154       H  0.33196497  0.58756677  0.52510808     0.16600
O1155       O  0.30667623  0.54713745  0.45839331    -0.59400
H1156       H  0.34795861  0.52906760  0.46098341     0.15000
H1157       H  0.44892476  0.55170921  0.51318051     0.46900
H1158       H  0.37082459  0.55708188  0.54069965     0.42300
H1159       H  0.30996651  0.55761299  0.44449647     0.45700
H1160       H  0.36007725  0.49677985  0.51212799     0.37200
C1161       C  0.53228856  0.47360076  0.38751596    -0.27100
C1162       C  0.54758853  0.49081847  0.37919137     0.02600
C1163       C  0.55420289  0.50888112  0.39499639     0.30600
C1164       C  0.54679225  0.50868204  0.41926814    -0.18800
C1165       C  0.53271981  0.49064489  0.42801323    -0.28200
C1166       C  0.52484473  0.47343296  0.41181168     0.44700
C1167       C  0.55915757  0.48818550  0.35531400     0.05900
O1168       O  0.56916351  0.52591352  0.38732094    -0.56800
H1169       H  0.55321904  0.52181089  0.43169294     0.18800
O1170       O  0.51108883  0.45561168  0.41995247    -0.63500
H1171       H  0.52712551  0.45961336  0.37548725     0.17200
C1172       C  0.57536499  0.47032677  0.35169295     0.29500
C1173       C  0.58821821  0.46931205  0.33008973    -0.24400
C1174       C  0.58521898  0.48600572  0.31176370    -0.23700
C1175       C  0.56833139  0.50345843  0.31513950     0.40900
C1176       C  0.55565576  0.50456722  0.33690805    -0.26100
O1177       O  0.57932373  0.45421796  0.36955170    -0.58000
H1178       H  0.60093054  0.45567434  0.32793172     0.16600
O1179       O  0.56472346  0.52012490  0.29779072    -0.59400
H1180       H  0.54332997  0.51847611  0.33961347     0.15000
H1181       H  0.52201038  0.44348074  0.42550892     0.46900
H1182       H  0.59098206  0.46143499  0.38047409     0.42300
H1183       H  0.55193442  0.51402882  0.28753701     0.45700
H1184       H  0.58491787  0.51954071  0.38995405     0.37200
C1185       C  0.29037336  0.39180487  0.75581408    -0.27100
C1186       C  0.30186974  0.37383437  0.74346133     0.02600
C1187       C  0.32247733  0.37887813  0.73078196     0.30600
C1188       C  0.33186962  0.40129466  0.73147879    -0.18800
C1189       C  0.32105723  0.41912473  0.74475954    -0.28200
C1190       C  0.29982369  0.41429960  0.75659716     0.44700
C1191       C  0.29343586  0.34955203  0.74574629     0.05900
O1192       O  0.33339799  0.36199083  0.71742899    -0.56800
H1193       H  0.34791987  0.40463245  0.72178839     0.18800
O1194       O  0.28855152  0.43115111  0.76963071    -0.63500
H1195       H  0.27449839  0.38815835  0.76570333     0.17200
C1196       C  0.30701534  0.33290706  0.75786164     0.29500
C1197       C  0.29830457  0.31056750  0.76179695    -0.24400
C1198       C  0.27597391  0.30437683  0.75397076    -0.23700
C1199       C  0.26261533  0.32071384  0.74119193     0.40900
C1200       C  0.27132565  0.34319348  0.73725073    -0.26100
O1201       O  0.32838603  0.33866198  0.76704673    -0.58000
H1202       H  0.30855623  0.29833542  0.77213490     0.16600
O1203       O  0.24048167  0.31534759  0.73398667    -0.59400
H1204       H  0.26061621  0.35584225  0.72806209     0.15000
H1205       H  0.29404411  0.42933227  0.78662750     0.46900
H1206       H  0.32525501  0.34538821  0.78335311     0.42300
H1207       H  0.24191274  0.31063169  0.71667744     0.45700
H1208       H  0.34771186  0.35823514  0.72658328     0.37200
C1209       C  0.26771394  0.62311525  0.76329329    -0.27100
C1210       C  0.29192962  0.62097213  0.76216211     0.02600
C1211       C  0.30559535  0.64119670  0.76039239     0.30600
C1212       C  0.29498373  0.66293941  0.75782713    -0.18800
C1213       C  0.27072324  0.66487199  0.75693784    -0.28200
C1214       C  0.25710061  0.64481378  0.76047528     0.44700
C1215       C  0.30250204  0.59755972  0.75997482     0.05900
O1216       O  0.32931738  0.63972659  0.75963373    -0.56800
H1217       H  0.30571311  0.67807994  0.75460520     0.18800
O1218       O  0.23336149  0.64609991  0.75959081    -0.63500
H1219       H  0.25695669  0.60774200  0.76467162     0.17200
C1220       C  0.30173634  0.58154803  0.77924589     0.29500
C1221       C  0.31120420  0.55930346  0.77627349    -0.24400
C1222       C  0.32126998  0.55242811  0.75400656    -0.23700
C1223       C  0.32167542  0.56850384  0.73459927     0.40900
C1224       C  0.31253281  0.59082190  0.73776703    -0.26100
O1225       O  0.29248572  0.58776195  0.80132193    -0.58000
H1226       H  0.31081203  0.54747049  0.79156588     0.16600
O1227       O  0.33134637  0.56282933  0.71255461    -0.59400
H1228       H  0.31302028  0.60288697  0.72266574     0.15000
H1229       H  0.22915664  0.64189620  0.74263688     0.46900
H1230       H  0.27610427  0.58250790  0.80075400     0.42300
H1231       H  0.31831173  0.55677463  0.70261917     0.45700
H1232       H  0.33425653  0.63938845  0.77692084     0.37200
C1233       C  0.40863373  0.47180602  0.64158832    -0.27100
C1234       C  0.43113395  0.48118198  0.64202616     0.02600
C1235       C  0.43936909  0.49115134  0.66381261     0.30600
C1236       C  0.42514820  0.49174744  0.68458207    -0.18800
C1237       C  0.40243830  0.48274010  0.68402725    -0.28200
C1238       C  0.39433070  0.47256310  0.66223922     0.44700
C1239       C  0.44504054  0.48182360  0.61915120     0.05900
O1240       O  0.46120510  0.50058433  0.66493927    -0.56800
H1241       H  0.43181766  0.49962405  0.70107659     0.18800
O1242       O  0.37260578  0.46288342  0.66098992    -0.63500
H1243       H  0.40185552  0.46435131  0.62492919     0.17200
C1244       C  0.44906091  0.46158154  0.60534289     0.29500
C1245       C  0.45881171  0.46316993  0.58191631    -0.24400
C1246       C  0.46450811  0.48481634  0.57194115    -0.23700
C1247       C  0.46176954  0.50486907  0.58631273     0.40900
C1248       C  0.45229259  0.50327274  0.60976452    -0.26100
O1249       O  0.44310017  0.44025207  0.61447087    -0.58000
H1250       H  0.46045832  0.44765816  0.57091655     0.16600
O1251       O  0.46696608  0.52628733  0.57690075    -0.59400
H1252       H  0.44921175  0.51903446  0.62000085     0.15000
H1253       H  0.36264277  0.47503848  0.65376056     0.46900
H1254       H  0.42894244  0.43553622  0.60547933     0.42300
H1255       H  0.45205007  0.53244132  0.57072073     0.45700
H1256       H  0.47173000  0.48726793  0.66758348     0.37200
C1257       C  0.35591705  0.41300981  0.98541166    -0.27100
C1258       C  0.36141461  0.42760407  0.00501362     0.02600
C1259       C  0.34413201  0.43300564  0.02220827     0.30600
C1260       C  0.32176889  0.42362118  0.01976095    -0.18800
C1261       C  0.31624761  0.40881308  0.00019328    -0.28200
C1262       C  0.33359077  0.40380888  0.98277568     0.44700
C1263       C  0.38484515  0.43818976  0.00606735     0.05900
O1264       O  0.34896989  0.44732963  0.04150392    -0.56800
H1265       H  0.30882252  0.42771316  0.03341383     0.18800
O1266       O  0.32900623  0.38993111  0.96305627    -0.63500
H1267       H  0.36893503  0.40909334  0.97176063     0.17200
C1268       C  0.40489510  0.42427326  0.00647236     0.29500
C1269       C  0.42673916  0.43425666  0.00238859    -0.24400
C1270       C  0.42885461  0.45808748  0.99793932    -0.23700
C1271       C  0.40902230  0.47220786  0.99923131     0.40900
C1272       C  0.38720650  0.46225062  0.00336955    -0.26100
O1273       O  0.40314812  0.40074146  0.00943570    -0.58000
H1274       H  0.44185970  0.42320507  0.00119047     0.16600
O1275       O  0.41059162  0.49550037  0.99457674    -0.59400
H1276       H  0.37194217  0.47314476  0.00286977     0.15000
H1277       H  0.32353986  0.40062859  0.95017558     0.46900
H1278       H  0.40337648  0.39826530  0.02730201     0.42300
H1279       H  0.41551627  0.50260329  0.01019673     0.45700
H1280       H  0.35406079  0.43687880  0.05476974     0.37200
C1281       C  0.43420355  0.50424921  0.83801388    -0.27100
C1282       C  0.43238010  0.48639326  0.85520774     0.02600
C1283       C  0.41538509  0.46905448  0.85195720     0.30600
C1284       C  0.40104177  0.46937708  0.83140432    -0.18800
C1285       C  0.40315547  0.48693037  0.81384004    -0.28200
C1286       C  0.41973549  0.50469113  0.81753310     0.44700
C1287       C  0.44718250  0.48665087  0.87729384     0.05900
O1288       O  0.41182421  0.45246901  0.86948550    -0.56800
H1289       H  0.38812547  0.45584490  0.82933034     0.18800
O1290       O  0.42202536  0.52258704  0.80129304    -0.63500
H1291       H  0.44688578  0.51794114  0.84051168     0.17200
C1292       C  0.46014751  0.46701568  0.88407818     0.29500
C1293       C  0.46992219  0.46576132  0.90734546    -0.24400
C1294       C  0.46742769  0.48417763  0.92377728    -0.23700
C1295       C  0.45677304  0.50479071  0.91605275     0.40900
C1296       C  0.44667191  0.50592729  0.89292558    -0.26100
O1297       O  0.46216002  0.44842133  0.86865278    -0.58000
H1298       H  0.47805447  0.44980341  0.91316771     0.16600
O1299       O  0.45413997  0.52303297  0.93184709    -0.59400
H1300       H  0.43705780  0.52128333  0.88786689     0.15000
H1301       H  0.41146539  0.53484501  0.80737561     0.46900
H1302       H  0.47529247  0.45233825  0.85770834     0.42300
H1303       H  0.46955134  0.53069622  0.93242322     0.45700
H1304       H  0.41678479  0.43763720  0.86199202     0.37200
C1305       C  0.54542027  0.46683308  0.10523064    -0.27100
C1306       C  0.54776067  0.48857229  0.11655279     0.02600
C1307       C  0.54127687  0.50865910  0.10376737     0.30600
C1308       C  0.53433438  0.50700313  0.07945372    -0.18800
C1309       C  0.53363383  0.48545109  0.06764915    -0.28200
C1310       C  0.53851786  0.46520919  0.08083899     0.44700
C1311       C  0.56003271  0.49033596  0.14014998     0.05900
O1312       O  0.54305588  0.53009393  0.11443567    -0.56800
H1313       H  0.53082223  0.52270874  0.06932504     0.18800
O1314       O  0.53795669  0.44396444  0.06962528    -0.63500
H1315       H  0.55052355  0.45123771  0.11475223     0.17200
C1316       C  0.55248478  0.47807258  0.16081236     0.29500
C1317       C  0.56582960  0.47841080  0.18213576    -0.24400
C1318       C  0.58696323  0.49065811  0.18310614    -0.23700
C1319       C  0.59411951  0.50343877  0.16250025     0.40900
C1320       C  0.58067067  0.50322082  0.14134967    -0.26100
O1321       O  0.53190689  0.46607729  0.16042672    -0.58000
H1322       H  0.55978448  0.46870112  0.19779185     0.16600
O1323       O  0.61427707  0.51612965  0.16268809    -0.59400
H1324       H  0.58679511  0.51261101  0.12550003     0.15000
H1325       H  0.55375321  0.44175245  0.06284607     0.46900
H1326       H  0.53627876  0.44953264  0.15888728     0.42300
H1327       H  0.62620175  0.50577685  0.15555735     0.45700
H1328       H  0.52761627  0.53300109  0.12179292     0.37200
C1329       C  0.09636573  0.54581592  0.51081519    -0.27100
C1330       C  0.11716586  0.53391033  0.50600948     0.02600
C1331       C  0.11590045  0.51027301  0.49942733     0.30600
C1332       C  0.09431640  0.49934009  0.49686964    -0.18800
C1333       C  0.07355483  0.51165317  0.50012871    -0.28200
C1334       C  0.07473634  0.53502921  0.50745327     0.44700
C1335       C  0.13988977  0.54651560  0.50608937     0.05900
O1336       O  0.13557980  0.49798736  0.49400515    -0.56800
H1337       H  0.09374894  0.48147587  0.49077438     0.18800
O1338       O  0.05489337  0.54784681  0.51006333    -0.63500
H1339       H  0.09684021  0.56385653  0.51625879     0.17200
C1340       C  0.14269020  0.56769587  0.49355593     0.29500
C1341       C  0.16452389  0.57834351  0.49220931    -0.24400
C1342       C  0.18412324  0.56824378  0.50301688    -0.23700
C1343       C  0.18125486  0.54737810  0.51609551     0.40900
C1344       C  0.15934969  0.53676953  0.51755805    -0.26100
O1345       O  0.12433356  0.57793120  0.48196567    -0.58000
H1346       H  0.16611614  0.59450188  0.48231595     0.16600
O1347       O  0.19978640  0.53683528  0.52704336    -0.59400
H1348       H  0.15761865  0.52072414  0.52761897     0.15000
H1349       H  0.05202598  0.55468408  0.49378608     0.46900
H1350       H  0.12431076  0.57127648  0.46530492     0.42300
H1351       H  0.19962234  0.54248315  0.54411049     0.45700
H1352       H  0.13864404  0.50104605  0.47651957     0.37200
C1353       C  0.09603632  0.43200314  0.98897301    -0.27100
C1354       C  0.11661798  0.44489875  0.99155536     0.02600
C1355       C  0.11520317  0.46874838  0.99676564     0.30600
C1356       C  0.09355195  0.47907888  0.00054786    -0.18800
C1357       C  0.07306097  0.46591121  0.99936852    -0.28200
C1358       C  0.07437235  0.44230465  0.99302693     0.44700
C1359       C  0.13936924  0.43290800  0.99183691     0.05900
O1360       O  0.13493263  0.48178614  0.99974337    -0.56800
H1361       H  0.09280200  0.49718158  0.00575649     0.18800
O1362       O  0.05470231  0.42890769  0.99203199    -0.63500
H1363       H  0.09685601  0.41363355  0.98496523     0.17200
C1364       C  0.14372531  0.41554680  0.00919672     0.29500
C1365       C  0.16552516  0.40509675  0.01040229    -0.24400
C1366       C  0.18355288  0.41172292  0.99458171    -0.23700
C1367       C  0.17915493  0.42907626  0.97704714     0.40900
C1368       C  0.15724139  0.43960868  0.97590194    -0.26100
O1369       O  0.12687624  0.40896523  0.02547280    -0.58000
H1370       H  0.16833148  0.39181984  0.02400123     0.16600
O1371       O  0.19609543  0.43600936  0.96105484    -0.59400
H1372       H  0.15417165  0.45303015  0.96252059     0.15000
H1373       H  0.05220164  0.42336457  0.00892272     0.46900
H1374       H  0.12789781  0.42034111  0.03898953     0.42300
H1375       H  0.19358558  0.42652918  0.94620449     0.45700
H1376       H  0.13921260  0.47994416  0.01712141     0.37200
C1377       C  0.18003778  0.33204231  0.25545986    -0.27100
C1378       C  0.19470452  0.35156588  0.25625213     0.02600
C1379       C  0.21893256  0.34816264  0.25620590     0.30600
C1380       C  0.22803721  0.32580901  0.25357790    -0.18800
C1381       C  0.21333097  0.30656941  0.25094564    -0.28200
C1382       C  0.18919720  0.30970308  0.25260038     0.44700
C1383       C  0.18473566  0.37535027  0.25488379     0.05900
O1384       O  0.23388476  0.36667922  0.25703513    -0.56800
H1385       H  0.24663220  0.32366115  0.25183376     0.18800
O1386       O  0.17442716  0.29118514  0.25001627    -0.63500
H1387       H  0.16138524  0.33423096  0.25589448     0.17200
C1388       C  0.16913045  0.38133410  0.23616592     0.29500
C1389       C  0.16048835  0.40394045  0.23453696    -0.24400
C1390       C  0.16734248  0.42118420  0.25116282    -0.23700
C1391       C  0.18313732  0.41524903  0.26977303     0.40900
C1392       C  0.19162126  0.39254244  0.27152423    -0.26100
O1393       O  0.16244555  0.36529318  0.21908137    -0.58000
H1394       H  0.14843054  0.40799103  0.22005399     0.16600
O1395       O  0.19035525  0.43141285  0.28647207    -0.59400
H1396       H  0.20355941  0.38831978  0.28605951     0.15000
H1397       H  0.17076146  0.29050844  0.23238556     0.46900
H1398       H  0.17465790  0.36581494  0.20634847     0.42300
H1399       H  0.17928660  0.43007064  0.30025011     0.45700
H1400       H  0.23582498  0.37163836  0.23986242     0.37200
C1401       C  0.17642202  0.59566517  0.26426484    -0.27100
C1402       C  0.19309702  0.60021923  0.24621647     0.02600
C1403       C  0.19902978  0.58244259  0.22975425     0.30600
C1404       C  0.18815244  0.56070670  0.23126928    -0.18800
C1405       C  0.17124674  0.55617210  0.24915724    -0.28200
C1406       C  0.16566239  0.57390249  0.26594002     0.44700
C1407       C  0.20510661  0.62309558  0.24565182     0.05900
O1408       O  0.21543112  0.58616935  0.21205407    -0.56800
H1409       H  0.19283888  0.54743560  0.21820107     0.18800
O1410       O  0.14977228  0.57021431  0.28415499    -0.63500
H1411       H  0.17206555  0.60890668  0.27749493     0.17200
C1412       C  0.19260882  0.64406394  0.24460577     0.29500
C1413       C  0.20434654  0.66538217  0.24630446    -0.24400
C1414       C  0.22849178  0.66611903  0.24938361    -0.23700
C1415       C  0.24101626  0.64520421  0.24957814     0.40900
C1416       C  0.22936658  0.62396923  0.24765274    -0.26100
O1417       O  0.16893762  0.64384917  0.24205930    -0.58000
H1418       H  0.19445222  0.68131347  0.24661340     0.16600
O1419       O  0.26452829  0.64532039  0.25332381    -0.59400
H1420       H  0.23924136  0.60806920  0.24884309     0.15000
H1421       H  0.15885390  0.56393326  0.29796535     0.46900
H1422       H  0.16269715  0.64796746  0.25834107     0.42300
H1423       H  0.27144176  0.64814566  0.23704442     0.45700
H1424       H  0.20660220  0.59117114  0.19750837     0.37200
C1425       C  0.08733787  0.50005924  0.13993493    -0.27100
C1426       C  0.06309190  0.50060645  0.14178000     0.02600
C1427       C  0.05265631  0.49905030  0.16489803     0.30600
C1428       C  0.06654572  0.49692527  0.18574632    -0.18800
C1429       C  0.09092381  0.49627197  0.18387078    -0.28200
C1430       C  0.10120979  0.49792667  0.16060168     0.44700
C1431       C  0.04936305  0.50145365  0.11903078     0.05900
O1432       O  0.02898043  0.49952054  0.16729124    -0.56800
H1433       H  0.05819683  0.49571778  0.20339175     0.18800
O1434       O  0.12483874  0.49754651  0.15771975    -0.63500
H1435       H  0.09561664  0.50080129  0.12221732     0.17200
C1436       C  0.05356801  0.51899454  0.10175009     0.29500
C1437       C  0.04540331  0.51647431  0.07791541    -0.24400
C1438       C  0.03305266  0.49658684  0.07105164    -0.23700
C1439       C  0.02707246  0.48003233  0.08877819     0.40900
C1440       C  0.03511600  0.48260110  0.11271593    -0.26100
O1441       O  0.06644263  0.53818760  0.10784513    -0.58000
H1442       H  0.05008845  0.52929039  0.06434804     0.16600
O1443       O  0.01470859  0.46058983  0.08247478    -0.59400
H1444       H  0.03177088  0.46895603  0.12580583     0.15000
H1445       H  0.12874032  0.48105349  0.15475213     0.46900
H1446       H  0.08167549  0.53608304  0.09972618     0.42300
H1447       H  0.02652240  0.44884882  0.07805826     0.45700
H1448       H  0.02490333  0.51619084  0.16799879     0.37200
C1449       C  0.05370178  0.48405678  0.33543121    -0.27100
C1450       C  0.06469164  0.48031681  0.35783216     0.02600
C1451       C  0.08897207  0.47782503  0.35845528     0.30600
C1452       C  0.10190345  0.47917548  0.33694583    -0.18800
C1453       C  0.09104373  0.48320837  0.31446924    -0.28200
C1454       C  0.06662991  0.48534915  0.31382382     0.44700
C1455       C  0.05110151  0.48020082  0.38075760     0.05900
O1456       O  0.10031062  0.47461469  0.38012994    -0.56800
H1457       H  0.12058003  0.47743074  0.33798666     0.18800
O1458       O  0.05520751  0.48909697  0.29230595    -0.63500
H1459       H  0.03503254  0.48602203  0.33471393     0.17200
C1460       C  0.03931116  0.50022995  0.38854252     0.29500
C1461       C  0.03046753  0.50144169  0.41228234    -0.24400
C1462       C  0.03302444  0.48276514  0.42834601    -0.23700
C1463       C  0.04311219  0.46207940  0.41992589     0.40900
C1464       C  0.05210838  0.46090093  0.39626063    -0.26100
O1465       O  0.03851923  0.51952266  0.37401497    -0.58000
H1466       H  0.02321979  0.51761925  0.41877772     0.16600
O1467       O  0.04616810  0.44371878  0.43540191    -0.59400
H1468       H  0.06102235  0.44534234  0.39043048     0.15000
H1469       H  0.05078869  0.47345915  0.28636490     0.46900
H1470       H  0.02283912  0.51929733  0.36662631     0.42300
H1471       H  0.03118481  0.43523602  0.43520366     0.45700
H1472       H  0.10341326  0.49043807  0.38642878     0.37200
C1473       C  0.92924302  0.51302667  0.84957252    -0.27100
C1474       C  0.94322778  0.49347769  0.85327441     0.02600
C1475       C  0.94319254  0.47563901  0.83582074     0.30600
C1476       C  0.92871149  0.47711289  0.81548093    -0.18800
C1477       C  0.91394102  0.49621820  0.81221964    -0.28200
C1478       C  0.91462080  0.51447884  0.82931121     0.44700
C1479       C  0.95541488  0.49077387  0.87678390     0.05900
O1480       O  0.95675148  0.45637803  0.83885654    -0.56800
H1481       H  0.92861680  0.46290833  0.80256014     0.18800
O1482       O  0.90110055  0.53379948  0.82646389    -0.63500
H1483       H  0.92888662  0.52679692  0.86300120     0.17200
C1484       C  0.97056782  0.50803375  0.88558786     0.29500
C1485       C  0.97790552  0.50746754  0.90989168    -0.24400
C1486       C  0.97004596  0.48996157  0.92556016    -0.23700
C1487       C  0.95636750  0.47179871  0.91629738     0.40900
C1488       C  0.94928944  0.47217904  0.89197224    -0.26100
O1489       O  0.97770838  0.52578884  0.87073101    -0.58000
H1490       H  0.98835264  0.52158675  0.91696435     0.16600
O1491       O  0.94871879  0.45438339  0.93131392    -0.59400
H1492       H  0.93758797  0.45880913  0.88548147     0.15000
H1493       H  0.88726482  0.53107169  0.83684469     0.46900
H1494       H  0.96905304  0.53963817  0.87633658     0.42300
H1495       H  0.93293456  0.45908690  0.93651793     0.45700
H1496       H  0.97200345  0.46055964  0.83170535     0.37200
C1497       C  0.94584491  0.50735695  0.66449471    -0.27100
C1498       C  0.94190458  0.49059883  0.64643423     0.02600
C1499       C  0.92494231  0.47340136  0.65040649     0.30600
C1500       C  0.91149974  0.47375709  0.67163318    -0.18800
C1501       C  0.91457853  0.49117891  0.68924902    -0.28200
C1502       C  0.93250737  0.50763845  0.68587265     0.44700
C1503       C  0.95360620  0.49242109  0.62243987     0.05900
O1504       O  0.92065150  0.45674422  0.63312705    -0.56800
H1505       H  0.89811213  0.46071806  0.67390196     0.18800
O1506       O  0.93652131  0.52470259  0.70276634    -0.63500
H1507       H  0.95893345  0.52061165  0.66172544     0.17200
C1508       C  0.94940583  0.51163830  0.60729017     0.29500
C1509       C  0.95645365  0.51114958  0.58287488    -0.24400
C1510       C  0.96808265  0.49183066  0.57340083    -0.23700
C1511       C  0.97382799  0.47338906  0.58897585     0.40900
C1512       C  0.96650686  0.47370932  0.61332244    -0.26100
O1513       O  0.93640165  0.52992178  0.61550276    -0.58000
H1514       H  0.95155557  0.52522497  0.57091685     0.16600
O1515       O  0.98471009  0.45408308  0.57999021    -0.59400
H1516       H  0.96985235  0.45881730  0.62477241     0.15000
H1517       H  0.94873680  0.51841264  0.71357486     0.46900
H1518       H  0.94784763  0.54185761  0.62052657     0.42300
H1519       H  0.00152349  0.45749906  0.58136131     0.45700
H1520       H  0.90853102  0.46342070  0.62245830     0.37200
C1521       C  0.59849775  0.05194453  0.01203448    -0.27100
C1522       C  0.61781028  0.03715316  0.01107146     0.02600
C1523       C  0.61418165  0.01306384  0.00931549     0.30600
C1524       C  0.59164635  0.00427531  0.00662488    -0.18800
C1525       C  0.57252361  0.01923623  0.00574134    -0.28200
C1526       C  0.57597236  0.04313850  0.00925523     0.44700
C1527       C  0.64149946  0.04713056  0.00885896     0.05900
O1528       O  0.63261817  0.99811680  0.00850235    -0.56800
H1529       H  0.58921019  0.98587838  0.00353311     0.18800
O1530       O  0.55757428  0.05813175  0.00849222    -0.63500
H1531       H  0.60099984  0.07049937  0.01363700     0.17200
C1532       C  0.64702321  0.06174297  0.98916863     0.29500
C1533       C  0.66943933  0.07077157  0.98670743    -0.24400
C1534       C  0.68681824  0.06565406  0.00375650    -0.23700
C1535       C  0.68135641  0.05074280  0.02338806     0.40900
C1536       C  0.65887329  0.04151462  0.02571208    -0.26100
O1537       O  0.63079314  0.06658905  0.97166822    -0.58000
H1538       H  0.67314738  0.08196830  0.97135644     0.16600
O1539       O  0.69774202  0.04509675  0.04043720    -0.59400
H1540       H  0.65491638  0.03014381  0.04085608     0.15000
H1541       H  0.55582818  0.06228936  0.99107125     0.46900
H1542       H  0.62533725  0.08249029  0.97538005     0.42300
H1543       H  0.69558588  0.05643210  0.05383992     0.45700
H1544       H  0.63709989  0.99725408  0.99107670     0.37200
C1545       C  0.88749511  0.00908222  0.99925499    -0.27100
C1546       C  0.88648913  0.03277540  0.99355685     0.02600
C1547       C  0.90741407  0.04521852  0.99042309     0.30600
C1548       C  0.92871557  0.03441715  0.99476425    -0.18800
C1549       C  0.92954410  0.01110915  0.00182073    -0.28200
C1550       C  0.90881323  0.99822810  0.00321332     0.44700
C1551       C  0.86369613  0.04475735  0.99337710     0.05900
O1552       O  0.90719352  0.06822586  0.98421219    -0.56800
H1553       H  0.94454765  0.04454909  0.99382938     0.18800
O1554       O  0.90917380  0.97538857  0.01007069    -0.63500
H1555       H  0.87168185  0.99922528  0.00196310     0.17200
C1556       C  0.84458681  0.03590071  0.98031701     0.29500
C1557       C  0.82298426  0.04690471  0.98178882    -0.24400
C1558       C  0.82001497  0.06695410  0.99603399    -0.23700
C1559       C  0.83925401  0.07587284  0.00894099     0.40900
C1560       C  0.86071849  0.06474758  0.00761047    -0.26100
O1561       O  0.84683075  0.01654576  0.96599416    -0.58000
H1562       H  0.80855068  0.03976116  0.97161239     0.16600
O1563       O  0.83743500  0.09558457  0.02279633    -0.59400
H1564       H  0.87504320  0.07160097  0.01817495     0.15000
H1565       H  0.90950579  0.96651526  0.99459559     0.46900
H1566       H  0.85251946  0.02233960  0.95006568     0.42300
H1567       H  0.83415693  0.09007725  0.03955907     0.45700
H1568       H  0.90600368  0.06841875  0.96620037     0.37200
C1569       C  0.59765274  0.43115195  0.50485533    -0.27100
C1570       C  0.61694030  0.44588878  0.50753531     0.02600
C1571       C  0.61343092  0.47005162  0.50803037     0.30600
C1572       C  0.59110159  0.47910913  0.50490661    -0.18800
C1573       C  0.57200435  0.46436176  0.50131425    -0.28200
C1574       C  0.57537298  0.44023522  0.50151380     0.44700
C1575       C  0.64068155  0.43587629  0.50779727     0.05900
O1576       O  0.63183666  0.48497473  0.51050787    -0.56800
H1577       H  0.58883303  0.49772062  0.50400338     0.18800
O1578       O  0.55721605  0.42545994  0.49689897    -0.63500
H1579       H  0.60004556  0.41255997  0.50394785     0.17200
C1580       C  0.64686752  0.41866277  0.52467964     0.29500
C1581       C  0.66873337  0.40815769  0.52332341    -0.24400
C1582       C  0.68475489  0.41434304  0.50506088    -0.23700
C1583       C  0.67872510  0.43205886  0.48854492     0.40900
C1584       C  0.65690639  0.44266036  0.49005040    -0.26100
O1585       O  0.63180448  0.41236289  0.54289568    -0.58000
H1586       H  0.67296080  0.39480938  0.53642346     0.16600
O1587       O  0.69394028  0.43916586  0.47081553    -0.59400
H1588       H  0.65239586  0.45581080  0.47682780     0.15000
H1589       H  0.55701739  0.42351225  0.47894585     0.46900
H1590       H  0.62551298  0.39705836  0.53793068     0.42300
H1591       H  0.68936142  0.43049774  0.45596293     0.45700
H1592       H  0.63447536  0.48620563  0.52830371     0.37200
C1593       C  0.85158026  0.42248222  0.47374994    -0.27100
C1594       C  0.85831243  0.43655426  0.49336692     0.02600
C1595       C  0.84272743  0.43976963  0.51288065     0.30600
C1596       C  0.82107104  0.42861535  0.51282670    -0.18800
C1597       C  0.81446342  0.41402909  0.49347935    -0.28200
C1598       C  0.82985059  0.41144664  0.47356570     0.44700
C1599       C  0.88197252  0.44695195  0.49397911     0.05900
O1600       O  0.84875367  0.45329257  0.53245199    -0.56800
H1601       H  0.80963937  0.43100076  0.52830155     0.18800
O1602       O  0.82408835  0.39785038  0.45397621    -0.63500
H1603       H  0.86329945  0.41995535  0.45853332     0.17200
C1604       C  0.90186579  0.43277994  0.49410898     0.29500
C1605       C  0.92392444  0.44264717  0.49738428    -0.24400
C1606       C  0.92652178  0.46663474  0.50059583    -0.23700
C1607       C  0.90678350  0.48090742  0.49927266     0.40900
C1608       C  0.88472847  0.47106407  0.49604954    -0.26100
O1609       O  0.89981056  0.40914876  0.49240788    -0.58000
H1610       H  0.93889087  0.43142882  0.49885034     0.16600
O1611       O  0.90876647  0.50439725  0.50250420    -0.59400
H1612       H  0.86964761  0.48221730  0.49586391     0.15000
H1613       H  0.81635575  0.40845281  0.44236019     0.46900
H1614       H  0.89708609  0.40375430  0.50931980     0.42300
H1615       H  0.91347031  0.51054228  0.48636992     0.45700
H1616       H  0.85746686  0.44288289  0.54347678     0.37200
C1617       C  0.81012884  0.34192366  0.76011903    -0.27100
C1618       C  0.79583662  0.36127000  0.75610959     0.02600
C1619       C  0.77236716  0.35758089  0.75004996     0.30600
C1620       C  0.76390797  0.33504551  0.74672596    -0.18800
C1621       C  0.77846840  0.31577657  0.74946649    -0.28200
C1622       C  0.80159385  0.31929639  0.75681620     0.44700
C1623       C  0.80587597  0.38510539  0.75632360     0.05900
O1624       O  0.75776316  0.37594613  0.74633012    -0.56800
H1625       H  0.74615156  0.33260865  0.74077791     0.18800
O1626       O  0.81644779  0.30088234  0.75878048    -0.63500
H1627       H  0.82827419  0.34437999  0.76454939     0.17200
C1628       C  0.81854073  0.39355624  0.77637993     0.29500
C1629       C  0.82859512  0.41572860  0.77557261    -0.24400
C1630       C  0.82625203  0.42995227  0.75490063    -0.23700
C1631       C  0.81319933  0.42156651  0.73499048     0.40900
C1632       C  0.80319274  0.39941164  0.73584252    -0.26100
O1633       O  0.82125195  0.38026396  0.79685503    -0.58000
H1634       H  0.83851880  0.42166664  0.79112267     0.16600
O1635       O  0.81009861  0.43479366  0.71452600    -0.59400
H1636       H  0.79366391  0.39317820  0.72014010     0.15000
H1637       H  0.81724191  0.29747671  0.77645461     0.46900
H1638       H  0.80750932  0.38367912  0.80712166     0.42300
H1639       H  0.82243080  0.42980265  0.70306265     0.45700
H1640       H  0.75179801  0.38003771  0.76272503     0.37200
C1641       C  0.70413025  0.08497129  0.73212651    -0.27100
C1642       C  0.69683859  0.10357722  0.74670880     0.02600
C1643       C  0.67837284  0.10015680  0.76316399     0.30600
C1644       C  0.66736864  0.07854618  0.76467047    -0.18800
C1645       C  0.67463867  0.05981776  0.75016331    -0.28200
C1646       C  0.69317038  0.06327099  0.73367583     0.44700
C1647       C  0.70919806  0.12619633  0.74568776     0.05900
O1648       O  0.67122790  0.11772698  0.77824247    -0.56800
H1649       H  0.65324291  0.07639420  0.77751716     0.18800
O1650       O  0.70072617  0.04563506  0.71893256    -0.63500
H1651       H  0.71834511  0.08731405  0.71942346     0.17200
C1652       C  0.73298173  0.12768367  0.75132788     0.29500
C1653       C  0.74365937  0.14939088  0.75372783    -0.24400
C1654       C  0.73092627  0.16988620  0.75066187    -0.23700
C1655       C  0.70747807  0.16841553  0.74372068     0.40900
C1656       C  0.69680143  0.14667753  0.74116095    -0.26100
O1657       O  0.74558894  0.10808208  0.75605050    -0.58000
H1658       H  0.76159740  0.15027907  0.75953133     0.16600
O1659       O  0.69452613  0.18811338  0.74082061    -0.59400
H1660       H  0.67852763  0.14581343  0.73666752     0.15000
H1661       H  0.69149172  0.04704355  0.70378600     0.46900
H1662       H  0.74298783  0.10479179  0.77357180     0.42300
H1663       H  0.68824953  0.19165408  0.75723401     0.45700
H1664       H  0.68168345  0.11700632  0.79254577     0.37200
C1665       C  0.74965725  0.18528631  0.91457110    -0.27100
C1666       C  0.75721584  0.17634420  0.89216674     0.02600
C1667       C  0.76343924  0.15275787  0.89069140     0.30600
C1668       C  0.76208036  0.13860617  0.91133468    -0.18800
C1669       C  0.75430587  0.14745050  0.93375528    -0.28200
C1670       C  0.74817865  0.17111384  0.93522915     0.44700
C1671       C  0.75742734  0.19119963  0.87005491     0.05900
O1672       O  0.77045959  0.14320987  0.86900991    -0.56800
H1673       H  0.76693876  0.12055257  0.90966912     0.18800
O1674       O  0.74047526  0.18060328  0.95666721    -0.63500
H1675       H  0.74488222  0.20337167  0.91607855     0.17200
C1676       C  0.73705248  0.20228614  0.86205945     0.29500
C1677       C  0.73624562  0.21211450  0.83874948    -0.24400
C1678       C  0.75566587  0.21135857  0.82336088    -0.23700
C1679       C  0.77663159  0.20232666  0.83222717     0.40900
C1680       C  0.77742722  0.19233348  0.85542869    -0.26100
O1681       O  0.71714673  0.20136027  0.87574336    -0.58000
H1682       H  0.71988079  0.21857669  0.83190473     0.16600
O1683       O  0.79570663  0.20092165  0.81735139    -0.59400
H1684       H  0.79333766  0.18422221  0.86144661     0.15000
H1685       H  0.75453245  0.18702951  0.96461472     0.46900
H1686       H  0.71583665  0.21687653  0.88340088     0.42300
H1687       H  0.80322909  0.21636399  0.81842464     0.45700
H1688       H  0.75595194  0.13855693  0.86061811     0.37200
C1689       C  0.77071028  0.27659232  0.63592987    -0.27100
C1690       C  0.75104814  0.28892485  0.62836166     0.02600
C1691       C  0.73247708  0.29201719  0.64470202     0.30600
C1692       C  0.73438206  0.28416690  0.66873279    -0.18800
C1693       C  0.75470482  0.27327943  0.67673124    -0.28200
C1694       C  0.77259768  0.26874537  0.65997094     0.44700
C1695       C  0.75160142  0.30164022  0.60498436     0.05900
O1696       O  0.71316893  0.30420786  0.63787427    -0.56800
H1697       H  0.72067893  0.28806906  0.68162253     0.18800
O1698       O  0.79280301  0.25854474  0.66747036    -0.63500
H1699       H  0.78517021  0.27425880  0.62354338     0.17200
C1700       C  0.76665254  0.32066484  0.60219593     0.29500
C1701       C  0.76626795  0.33374413  0.58081153    -0.24400
C1702       C  0.75105931  0.32814623  0.56171225    -0.23700
C1703       C  0.73610550  0.30882066  0.56441782     0.40900
C1704       C  0.73642626  0.29578560  0.58600417    -0.26100
O1705       O  0.78103041  0.32730200  0.62084260    -0.58000
H1706       H  0.77779619  0.34853955  0.57935830     0.16600
O1707       O  0.72102456  0.30257436  0.54625102    -0.59400
H1708       H  0.72468157  0.28121866  0.58803425     0.15000
H1709       H  0.78969572  0.24164534  0.66681784     0.46900
H1710       H  0.79629630  0.32035340  0.61691089     0.42300
H1711       H  0.70632505  0.31066072  0.55016272     0.45700
H1712       H  0.71678455  0.32062587  0.64171546     0.37200
C1713       C  0.67601266  0.38283688  0.22252665    -0.27100
C1714       C  0.69163694  0.37634454  0.24085068     0.02600
C1715       C  0.69634363  0.39221688  0.25982844     0.30600
C1716       C  0.68535028  0.41389289  0.26037268    -0.18800
C1717       C  0.66920052  0.42014397  0.24239762    -0.28200
C1718       C  0.66480682  0.40436970  0.22320113     0.44700
C1719       C  0.70181887  0.35255767  0.24089253     0.05900
O1720       O  0.71109051  0.38644986  0.27842228    -0.56800
H1721       H  0.68902576  0.42558418  0.27533973     0.18800
O1722       O  0.64924261  0.40954611  0.20516897    -0.63500
H1723       H  0.67226644  0.37101785  0.20768800     0.17200
C1724       C  0.68745421  0.33271120  0.23955127     0.29500
C1725       C  0.69690556  0.31053362  0.24261102    -0.24400
C1726       C  0.72062074  0.30767419  0.24724922    -0.23700
C1727       C  0.73519095  0.32731522  0.24733780     0.40900
C1728       C  0.72582757  0.34950079  0.24393522    -0.26100
O1729       O  0.66391431  0.33484053  0.23683744    -0.58000
H1730       H  0.68541721  0.29564425  0.24311227     0.16600
O1731       O  0.75847533  0.32501944  0.25180488    -0.59400
H1732       H  0.73724089  0.36443519  0.24463114     0.15000
H1733       H  0.65849482  0.41737882  0.19233492     0.46900
H1734       H  0.65783239  0.33762014  0.25349285     0.42300
H1735       H  0.76028308  0.32778832  0.26953395     0.45700
H1736       H  0.70141129  0.37773071  0.29024290     0.37200
C1737       C  0.82010594  0.09265392  0.24444452    -0.27100
C1738       C  0.80068720  0.09527267  0.25963197     0.02600
C1739       C  0.79255693  0.07586270  0.27274220     0.30600
C1740       C  0.80410342  0.05449334  0.27086095    -0.18800
C1741       C  0.82389741  0.05206636  0.25601947    -0.28200
C1742       C  0.83165993  0.07145811  0.24258720     0.44700
C1743       C  0.78881758  0.11818602  0.26064107     0.05900
O1744       O  0.77347576  0.07761421  0.28757173    -0.56800
H1745       H  0.79769930  0.03987721  0.28127640     0.18800
O1746       O  0.85055710  0.06999046  0.22746087    -0.63500
H1747       H  0.82621882  0.10710609  0.23359727     0.17200
C1748       C  0.80152890  0.13879156  0.26470157     0.29500
C1749       C  0.79097323  0.16045262  0.26141175    -0.24400
C1750       C  0.76779416  0.16195068  0.25395760    -0.23700
C1751       C  0.75463133  0.14144694  0.25164034     0.40900
C1752       C  0.76512881  0.11979488  0.25495080    -0.26100
O1753       O  0.82442434  0.13785824  0.27143296    -0.58000
H1754       H  0.80134364  0.17606383  0.26309060     0.16600
O1755       O  0.73194092  0.14237564  0.24426447    -0.59400
H1756       H  0.75507024  0.10423123  0.25159591     0.15000
H1757       H  0.84426089  0.06496998  0.21149643     0.46900
H1758       H  0.83333788  0.14318327  0.25700780     0.42300
H1759       H  0.72292712  0.14548679  0.25930990     0.45700
H1760       H  0.77952393  0.08327854  0.30340064     0.37200
C1761       C  0.76155121  0.28083109  0.35743567    -0.27100
C1762       C  0.74107264  0.28636794  0.37000993     0.02600
C1763       C  0.71950284  0.28058887  0.35964600     0.30600
C1764       C  0.71854394  0.27137515  0.33612203    -0.18800
C1765       C  0.73895272  0.26761080  0.32277374    -0.28200
C1766       C  0.76057922  0.27144708  0.33390858     0.44700
C1767       C  0.74219346  0.30087497  0.39221417     0.05900
O1768       O  0.69923562  0.28535524  0.37174134    -0.56800
H1769       H  0.70180391  0.26865972  0.32761630     0.18800
O1770       O  0.78072782  0.26835205  0.32101872    -0.63500
H1771       H  0.77826084  0.28530357  0.36514971     0.17200
C1772       C  0.75369879  0.29338791  0.41329972     0.29500
C1773       C  0.75467856  0.30782965  0.43382828    -0.24400
C1774       C  0.74458073  0.33001270  0.43354969    -0.23700
C1775       C  0.73340417  0.33757580  0.41214317     0.40900
C1776       C  0.73216469  0.32298586  0.39183215    -0.26100
O1777       O  0.76335539  0.27171997  0.41425421    -0.58000
H1778       H  0.76334155  0.30158873  0.45002273     0.16600
O1779       O  0.72367237  0.35919013  0.41075259    -0.59400
H1780       H  0.72361061  0.32910945  0.37550886     0.15000
H1781       H  0.78603564  0.25255223  0.32531053     0.46900
H1782       H  0.78016558  0.27416835  0.41134457     0.42300
H1783       H  0.73607271  0.36933618  0.40411330     0.45700
H1784       H  0.69632726  0.27162258  0.38215667     0.37200
C1785       C  0.72912039  0.18969296  0.14238441    -0.27100
C1786       C  0.75008865  0.18513979  0.13023446     0.02600
C1787       C  0.77121406  0.19075869  0.14168899     0.30600
C1788       C  0.77117428  0.19929558  0.16554044    -0.18800
C1789       C  0.75026155  0.20219780  0.17827546    -0.28200
C1790       C  0.72911668  0.19806794  0.16632192     0.44700
C1791       C  0.74988754  0.17200570  0.10703840     0.05900
O1792       O  0.79200554  0.18637770  0.13042185    -0.56800
H1793       H  0.78755760  0.20207596  0.17475835     0.18800
O1794       O  0.70851399  0.20003615  0.17865679    -0.63500
H1795       H  0.71274233  0.18555315  0.13374121     0.17200
C1796       C  0.73955918  0.14989228  0.10595375     0.29500
C1797       C  0.74062371  0.13692532  0.08447647    -0.24400
C1798       C  0.75184035  0.14564820  0.06368340    -0.23700
C1799       C  0.76220896  0.16784197  0.06477962     0.40900
C1800       C  0.76112227  0.18083535  0.08633765    -0.26100
O1801       O  0.72942921  0.14030385  0.12622159    -0.58000
H1802       H  0.73269599  0.11987992  0.08420613     0.16600
O1803       O  0.77358237  0.17697813  0.04502990    -0.59400
H1804       H  0.76924522  0.19778190  0.08697536     0.15000
H1805       H  0.70256855  0.21562271  0.17443742     0.46900
H1806       H  0.71248392  0.14182608  0.12362210     0.42300
H1807       H  0.78991203  0.17188983  0.04676680     0.45700
H1808       H  0.79565591  0.17003351  0.13441109     0.37200
C1809       C  0.59973560  0.53740552  0.98658148    -0.27100
C1810       C  0.61920210  0.52292372  0.98476702     0.02600
C1811       C  0.61601328  0.49869635  0.98538357     0.30600
C1812       C  0.59386569  0.48938483  0.98949536    -0.18800
C1813       C  0.57468172  0.50399151  0.99262574    -0.28200
C1814       C  0.57761114  0.52808688  0.99047579     0.44700
C1815       C  0.64275742  0.53341135  0.98490878     0.05900
O1816       O  0.63457630  0.48404592  0.98311302    -0.56800
H1817       H  0.59182389  0.47080921  0.99145927     0.18800
O1818       O  0.55928432  0.54272866  0.99436918    -0.63500
H1819       H  0.60187813  0.55606388  0.98644285     0.17200
C1820       C  0.64908587  0.55062220  0.96801648     0.29500
C1821       C  0.67043346  0.56206621  0.97020848    -0.24400
C1822       C  0.68584152  0.55677523  0.98926159    -0.23700
C1823       C  0.67962309  0.53921057  0.00593027     0.40900
C1824       C  0.65834796  0.52760250  0.00353867    -0.26100
O1825       O  0.63431146  0.55672051  0.94957003    -0.58000
H1826       H  0.67469088  0.57550204  0.95717174     0.16600
O1827       O  0.69399611  0.53340748  0.02482234    -0.59400
H1828       H  0.65361541  0.51461068  0.01689858     0.15000
H1829       H  0.55183309  0.54449186  0.97821894     0.46900
H1830       H  0.63810070  0.54610764  0.93592232     0.42300
H1831       H  0.68850359  0.54272152  0.03888009     0.45700
H1832       H  0.63664378  0.48184122  0.96532691     0.37200
C1833       C  0.85020401  0.55083589  0.97890557    -0.27100
C1834       C  0.85944111  0.54366176  0.00125431     0.02600
C1835       C  0.84567745  0.54514392  0.02234566     0.30600
C1836       C  0.82321343  0.55437333  0.02101932    -0.18800
C1837       C  0.81397411  0.56198241  0.99869563    -0.28200
C1838       C  0.82771000  0.55986466  0.97746076     0.44700
C1839       C  0.88361745  0.53502161  0.00215435     0.05900
O1840       O  0.85444854  0.53863907  0.04449775    -0.56800
H1841       H  0.81315157  0.55590630  0.03761996     0.18800
O1842       O  0.81952910  0.56684651  0.95521496    -0.63500
H1843       H  0.86059773  0.54959354  0.96249072     0.17200
C1844       C  0.88834274  0.51141432  0.00620285     0.29500
C1845       C  0.91107148  0.50311030  0.00382491    -0.24400
C1846       C  0.92925812  0.51811762  0.99739021    -0.23700
C1847       C  0.92472733  0.54190043  0.99454671     0.40900
C1848       C  0.90201359  0.55019583  0.99682710    -0.26100
O1849       O  0.87068209  0.49612089  0.01104937    -0.58000
H1850       H  0.91427579  0.48468709  0.00546603     0.16600
O1851       O  0.94209900  0.55683299  0.98771863    -0.59400
H1852       H  0.89858957  0.56837972  0.99356343     0.15000
H1853       H  0.82514808  0.58299874  0.95323805     0.46900
H1854       H  0.86549751  0.49042377  0.99489426     0.42300
H1855       H  0.94949891  0.56178672  0.00317058     0.45700
H1856       H  0.84829192  0.52281217  0.04736937     0.37200
C1857       C  0.77502502  0.84675363  0.24121298    -0.27100
C1858       C  0.79921079  0.84943609  0.23990613     0.02600
C1859       C  0.81336853  0.82955115  0.24092801     0.30600
C1860       C  0.80343379  0.80769585  0.24496188    -0.18800
C1861       C  0.77939403  0.80531420  0.24784725    -0.28200
C1862       C  0.76511670  0.82488425  0.24521229     0.44700
C1863       C  0.80957391  0.87303019  0.24111958     0.05900
O1864       O  0.83704005  0.83151618  0.23942779    -0.56800
H1865       H  0.81459576  0.79277880  0.24718760     0.18800
O1866       O  0.74158175  0.82302543  0.24832849    -0.63500
H1867       H  0.76387484  0.86181824  0.24075950     0.17200
C1868       C  0.80394259  0.89053772  0.22429686     0.29500
C1869       C  0.81360762  0.91282433  0.22681314    -0.24400
C1870       C  0.82872113  0.91809000  0.24619213    -0.23700
C1871       C  0.83396723  0.90051920  0.26316314     0.40900
C1872       C  0.82451028  0.87834116  0.26047618    -0.26100
O1873       O  0.78972448  0.88579143  0.20489811    -0.58000
H1874       H  0.80940415  0.92593290  0.21343963     0.16600
O1875       O  0.84836171  0.90473076  0.28253703    -0.59400
H1876       H  0.82859669  0.86524487  0.27391609     0.15000
H1877       H  0.73538677  0.81939648  0.23192033     0.46900
H1878       H  0.77461271  0.89295813  0.20905638     0.42300
H1879       H  0.83795564  0.90954246  0.29601732     0.45700
H1880       H  0.84075431  0.82925127  0.22194817     0.37200
C1881       C  0.69304201  0.63800720  0.25181232    -0.27100
C1882       C  0.70609208  0.61746315  0.25229874     0.02600
C1883       C  0.73050495  0.61901659  0.25129374     0.30600
C1884       C  0.74135314  0.64061992  0.24847749    -0.18800
C1885       C  0.72822271  0.66099933  0.24698237    -0.28200
C1886       C  0.70394270  0.65963350  0.24918371     0.44700
C1887       C  0.69411565  0.59452040  0.25227526     0.05900
O1888       O  0.74389421  0.59943528  0.25216122    -0.56800
H1889       H  0.76002874  0.64139789  0.24634624     0.18800
O1890       O  0.69063292  0.67913547  0.24670040    -0.63500
H1891       H  0.67427153  0.63720476  0.25226003     0.17200
C1892       C  0.67707498  0.58898179  0.26975522     0.29500
C1893       C  0.66578532  0.56742216  0.26901992    -0.24400
C1894       C  0.67109039  0.55094119  0.25092689    -0.23700
C1895       C  0.68797293  0.55665937  0.23323499     0.40900
C1896       C  0.69936971  0.57815958  0.23411862    -0.26100
O1897       O  0.67133660  0.60449796  0.28770656    -0.58000
H1898       H  0.65274729  0.56365052  0.28269275     0.16600
O1899       O  0.69347317  0.54146567  0.21490149    -0.59400
H1900       H  0.71210214  0.58224747  0.22022309     0.15000
H1901       H  0.68863413  0.68518955  0.26347968     0.46900
H1902       H  0.68283335  0.60193222  0.30083296     0.42300
H1903       H  0.68335074  0.54583810  0.20107119     0.45700
H1904       H  0.74569187  0.59597356  0.26974057     0.37200
C1905       C  0.77513991  0.68172454  0.14090604    -0.27100
C1906       C  0.75604020  0.68695642  0.12608412     0.02600
C1907       C  0.73824691  0.70114513  0.13538733     0.30600
C1908       C  0.73874970  0.70819880  0.15978606    -0.18800
C1909       C  0.75693205  0.70134155  0.17505538    -0.28200
C1910       C  0.77559150  0.68873285  0.16530733     0.44700
C1911       C  0.75329303  0.67474151  0.10250567     0.05900
O1912       O  0.71958818  0.70692555  0.12120840    -0.56800
H1913       H  0.72417453  0.71769099  0.16723077     0.18800
O1914       O  0.79363693  0.68202582  0.17991357    -0.63500
H1915       H  0.78890121  0.67072273  0.13410601     0.17200
C1916       C  0.77055279  0.67563548  0.08440579     0.29500
C1917       C  0.76853466  0.66181553  0.06349420    -0.24400
C1918       C  0.74957901  0.64665858  0.06043770    -0.23700
C1919       C  0.73200525  0.64629298  0.07836314     0.40900
C1920       C  0.73400476  0.66020275  0.09913978    -0.26100
O1921       O  0.78928420  0.69016420  0.08690349    -0.58000
H1922       H  0.78212879  0.66266214  0.04987622     0.16600
O1923       O  0.71322460  0.63178027  0.07631084    -0.59400
H1924       H  0.72076178  0.65903130  0.11312136     0.15000
H1925       H  0.78937983  0.66634230  0.18582139     0.46900
H1926       H  0.80249282  0.67997211  0.09113455     0.42300
H1927       H  0.70078924  0.64140421  0.06909532     0.45700
H1928       H  0.72416330  0.72151806  0.11295749     0.37200
C1929       C  0.69586760  0.89778486  0.77931136    -0.27100
C1930       C  0.69089511  0.88135958  0.76115511     0.02600
C1931       C  0.67618688  0.88761725  0.74180783     0.30600
C1932       C  0.66649519  0.90978638  0.74095788    -0.18800
C1933       C  0.67135230  0.92631573  0.75908781    -0.28200
C1934       C  0.68616378  0.92006284  0.77846760     0.44700
C1935       C  0.70161714  0.85797719  0.76176499     0.05900
O1936       O  0.67143662  0.87225807  0.72337078    -0.56800
H1937       H  0.65524181  0.91407664  0.72585141     0.18800
O1938       O  0.69128191  0.93549592  0.79670654    -0.63500
H1939       H  0.70717639  0.89325427  0.79429470     0.17200
C1940       C  0.72591321  0.85535328  0.76125746     0.29500
C1941       C  0.73563300  0.83337041  0.75771811    -0.24400
C1942       C  0.72140773  0.81381291  0.75468602    -0.23700
C1943       C  0.69721165  0.81620436  0.75658404     0.40900
C1944       C  0.68747552  0.83814034  0.76029855    -0.26100
O1945       O  0.74025724  0.87431759  0.76259420    -0.58000
H1946       H  0.75426960  0.83177266  0.75580383     0.16600
O1947       O  0.68292309  0.79740540  0.75333967    -0.59400
H1948       H  0.66876970  0.83983692  0.76082173     0.15000
H1949       H  0.67924705  0.93287038  0.80934321     0.46900
H1950       H  0.74205625  0.87972832  0.74555571     0.42300
H1951       H  0.67947966  0.79705376  0.73564879     0.45700
H1952       H  0.68378288  0.87485653  0.71106432     0.37200
C1953       C  0.76538801  0.62710856  0.74320989    -0.27100
C1954       C  0.78961216  0.62487070  0.74143979     0.02600
C1955       C  0.80345297  0.64511043  0.74206287     0.30600
C1956       C  0.79319114  0.66682314  0.74577806    -0.18800
C1957       C  0.76918151  0.66876575  0.74914072    -0.28200
C1958       C  0.75519400  0.64881537  0.74717672     0.44700
C1959       C  0.80046918  0.60143210  0.74110317     0.05900
O1960       O  0.82716278  0.64373992  0.74066676    -0.56800
H1961       H  0.80416314  0.68199511  0.74769246     0.18800
O1962       O  0.73168600  0.65019261  0.75071478    -0.63500
H1963       H  0.75440820  0.61185560  0.74247111     0.17200
C1964       C  0.79510089  0.58489096  0.75918826     0.29500
C1965       C  0.80697801  0.56373227  0.75996119    -0.24400
C1966       C  0.82451487  0.55857789  0.74299253    -0.23700
C1967       C  0.82945621  0.57492516  0.72451412     0.40900
C1968       C  0.81747794  0.59603067  0.72369191    -0.26100
O1969       O  0.77881835  0.58952583  0.77676592    -0.58000
H1970       H  0.80276730  0.55153286  0.77429220     0.16600
O1971       O  0.84662877  0.57096124  0.70771953    -0.59400
H1972       H  0.82178668  0.60842214  0.70957232     0.15000
H1973       H  0.72516928  0.65364783  0.73442310     0.46900
H1974       H  0.78727322  0.59814138  0.78964548     0.42300
H1975       H  0.83861090  0.56420384  0.69339738     0.45700
H1976       H  0.83240634  0.64097930  0.75760797     0.37200
C1977       C  0.76094377  0.70447760  0.86378895    -0.27100
C1978       C  0.74248734  0.69039833  0.87171774     0.02600
C1979       C  0.72363789  0.68638757  0.85591608     0.30600
C1980       C  0.72430746  0.69486604  0.83205357    -0.18800
C1981       C  0.74361890  0.70731199  0.82361743    -0.28200
C1982       C  0.76164005  0.71282512  0.83986145     0.44700
C1983       C  0.74441288  0.67747100  0.89498913     0.05900
O1984       O  0.70531215  0.67273715  0.86298907    -0.56800
H1985       H  0.71049023  0.69029624  0.81956612     0.18800
O1986       O  0.78094685  0.72450702  0.83187578    -0.63500
H1987       H  0.77546860  0.70790848  0.87576947     0.17200
C1988       C  0.76346441  0.66276149  0.89910001     0.29500
C1989       C  0.76405903  0.64870384  0.91978784    -0.24400
C1990       C  0.74589913  0.64899277  0.93683737    -0.23700
C1991       C  0.72699632  0.66406615  0.93299783     0.40900
C1992       C  0.72642742  0.67820500  0.91224737    -0.26100
O1993       O  0.78089139  0.66086382  0.88217103    -0.58000
H1994       H  0.77869941  0.63721821  0.92223412     0.16600
O1995       O  0.70872392  0.66474579  0.94901171    -0.59400
H1996       H  0.71164760  0.68941034  0.90934291     0.15000
H1997       H  0.77764308  0.74108672  0.83507344     0.46900
H1998       H  0.79420080  0.66953514  0.88914036     0.42300
H1999       H  0.69729769  0.65340709  0.94258905     0.45700
H2000       H  0.70986989  0.65668718  0.85867294     0.37200
C2001       C  0.85688495  0.90667634  0.48955710    -0.27100
C2002       C  0.86046541  0.92582443  0.50492943     0.02600
C2003       C  0.84133177  0.93501874  0.51770257     0.30600
C2004       C  0.81921218  0.92511828  0.51496776    -0.18800
C2005       C  0.81566890  0.90581421  0.49971781    -0.28200
C2006       C  0.83485695  0.89669148  0.48690487     0.44700
C2007       C  0.88393679  0.93672525  0.50624733     0.05900
O2008       O  0.84406518  0.95358022  0.53306974    -0.56800
H2009       H  0.80484629  0.93241303  0.52511487     0.18800
O2010       O  0.83239941  0.87793753  0.47174656    -0.63500
H2011       H  0.87120458  0.89962444  0.47914538     0.17200
C2012       C  0.90409633  0.92328209  0.50982711     0.29500
C2013       C  0.92614964  0.93331927  0.50702921    -0.24400
C2014       C  0.92849894  0.95679811  0.50091046    -0.23700
C2015       C  0.90844755  0.97056787  0.49908017     0.40900
C2016       C  0.88643620  0.96054207  0.50166167    -0.26100
O2017       O  0.90244983  0.90006209  0.51485274    -0.58000
H2018       H  0.94139428  0.92243906  0.50811472     0.16600
O2019       O  0.91018143  0.99347814  0.49271139    -0.59400
H2020       H  0.87127471  0.97118070  0.49860401     0.15000
H2021       H  0.82870075  0.88454962  0.45555394     0.46900
H2022       H  0.89927917  0.89916661  0.53258291     0.42300
H2023       H  0.91188085  0.00194225  0.50833763     0.45700
H2024       H  0.84934985  0.94686294  0.54871295     0.37200
C2025       C  0.63937686  0.90967431  0.50623515    -0.27100
C2026       C  0.63690934  0.93079161  0.49387052     0.02600
C2027       C  0.65646944  0.94039554  0.48208536     0.30600
C2028       C  0.67794855  0.92901552  0.48301313    -0.18800
C2029       C  0.68040081  0.90786586  0.49546150    -0.28200
C2030       C  0.66072839  0.89825020  0.50708916     0.44700
C2031       C  0.61428014  0.94320014  0.49508408     0.05900
O2032       O  0.65482027  0.96090872  0.46963137    -0.56800
H2033       H  0.69271360  0.93677861  0.47388190     0.18800
O2034       O  0.66206857  0.87767598  0.51946802    -0.63500
H2035       H  0.62476711  0.90220778  0.51590331     0.17200
C2036       C  0.59304847  0.93148738  0.49107257     0.29500
C2037       C  0.57194655  0.94238267  0.49651517    -0.24400
C2038       C  0.57159033  0.96522105  0.50527440    -0.23700
C2039       C  0.59266163  0.97745479  0.50759688     0.40900
C2040       C  0.61373385  0.96641758  0.50276208    -0.26100
O2041       O  0.59276113  0.90910485  0.48265306    -0.58000
H2042       H  0.55589245  0.93271959  0.49474428     0.16600
O2043       O  0.59289281  0.99984331  0.51603178    -0.59400
H2044       H  0.62973319  0.97573001  0.50622387     0.15000
H2045       H  0.66550765  0.88204393  0.53656545     0.46900
H2046       H  0.59368408  0.91043694  0.46467291     0.42300
H2047       H  0.58851113  0.00948670  0.50184072     0.45700
H2048       H  0.65031428  0.95648861  0.45283062     0.37200
C2049       C  0.75628577  0.83125903  0.60981264    -0.27100
C2050       C  0.75276677  0.80718348  0.60964088     0.02600
C2051       C  0.74875288  0.79589148  0.58731294     0.30600
C2052       C  0.74804521  0.80868710  0.56564865    -0.18800
C2053       C  0.75127753  0.83287932  0.56577682    -0.28200
C2054       C  0.75567755  0.84408268  0.58819486     0.44700
C2055       C  0.75247593  0.79435805  0.63305346     0.05900
O2056       O  0.74542238  0.77236354  0.58646954    -0.56800
H2057       H  0.74478952  0.79961348  0.54870581     0.18800
O2058       O  0.75899894  0.86760329  0.58934723    -0.63500
H2059       H  0.75917503  0.84023784  0.62689429     0.17200
C2060       C  0.77135098  0.79579376  0.64925883     0.29500
C2061       C  0.76934327  0.78683131  0.67284814    -0.24400
C2062       C  0.74871285  0.77618777  0.68053108    -0.23700
C2063       C  0.73041251  0.77332880  0.66386854     0.40900
C2064       C  0.73236740  0.78237029  0.64027027    -0.26100
O2065       O  0.79139574  0.80698024  0.64260510    -0.58000
H2066       H  0.78339752  0.78942196  0.68565387     0.16600
O2067       O  0.70986929  0.76348103  0.67114603    -0.59400
H2068       H  0.71765306  0.78121304  0.62807572     0.15000
H2069       H  0.77604496  0.86983917  0.58849705     0.46900
H2070       H  0.80091117  0.79502122  0.63435037     0.42300
H2071       H  0.71162306  0.74669766  0.66774339     0.45700
H2072       H  0.76121229  0.76561010  0.58692523     0.37200
C2073       C  0.76358252  0.77325277  0.36107710    -0.27100
C2074       C  0.74329535  0.78552151  0.36684877     0.02600
C2075       C  0.72518771  0.78640917  0.34968005     0.30600
C2076       C  0.72827784  0.77683010  0.32645819    -0.18800
C2077       C  0.74926967  0.76619006  0.32009323    -0.28200
C2078       C  0.76664180  0.76364251  0.33783874     0.44700
C2079       C  0.74249124  0.79985719  0.38929478     0.05900
O2080       O  0.70502671  0.79796058  0.35488816    -0.56800
H2081       H  0.71493277  0.77919574  0.31282008     0.18800
O2082       O  0.78751606  0.75380563  0.33188575    -0.63500
H2083       H  0.77774282  0.77256378  0.37399734     0.17200
C2084       C  0.74498673  0.79001823  0.41254570     0.29500
C2085       C  0.74550840  0.80430254  0.43324596    -0.24400
C2086       C  0.74394569  0.82857614  0.43116504    -0.23700
C2087       C  0.74137154  0.83833851  0.40775754     0.40900
C2088       C  0.74053370  0.82400380  0.38717038    -0.26100
O2089       O  0.74630404  0.76643329  0.41523954    -0.58000
H2090       H  0.74733286  0.79630553  0.45097344     0.16600
O2091       O  0.73951819  0.86184296  0.40470124    -0.59400
H2092       H  0.73885868  0.83184848  0.36933939     0.15000
H2093       H  0.78541202  0.73699934  0.33494341     0.46900
H2094       H  0.76301320  0.76309927  0.41758960     0.42300
H2095       H  0.75544652  0.86724474  0.40081177     0.45700
H2096       H  0.69514328  0.78650593  0.36350933     0.37200
loop_ 
_geom_bond_atom_site_label_1 
_geom_bond_atom_site_label_2 
_geom_bond_distance 
_geom_bond_site_symmetry_2 
_ccdc_geom_bond_type 
O1            C4   1.265       .  A
O1           Cd6   2.471       .  S
C2           O11   1.265       .  A
C2            O7   1.265       .  A
C2         C2053   1.487       .  S
O3            C9   1.266       .  A
O3           Cd6   2.499       .  S
C4           O12   1.267       .  A
C4         C2086   1.488       .  S
C5           O10   1.266       .  A
C5            O8   1.263       .  A
C5         C2029   1.490       .  S
Cd6          O13   2.468       .  S
Cd6          O12   2.478       .  S
Cd6          O11   2.470       .  S
Cd6           O7   2.473       .  S
Cd6          O10   2.507       .  S
Cd6           O8   2.464       .  S
C9           O13   1.264       .  A
C9         C2005   1.490       .  S
C14        C1942   1.481       .  S
C14          C15   1.395       .  A
C14          C19   1.414       .  A
C15          C16   1.395       .  A
C15          H34   1.086       .  S
C16        C2062   1.480       .  S
C16          C17   1.414       .  A
C17          C18   1.422       .  A
C17          C24   1.406       .  A
C18          C19   1.422       .  A
C18          C23   1.421       .  A
C19          C20   1.405       .  A
C20          C21   1.395       .  A
C20          H30   1.083       .  S
C21          C22   1.406       .  A
C21          H31   1.083       .  S
C22          C23   1.421       .  A
C22          C29   1.413       .  A
C23          C26   1.423       .  A
C24          C25   1.396       .  A
C24          H32   1.083       .  S
C25          C26   1.406       .  A
C25          H33   1.083       .  S
C26          C27   1.416       .  A
C27        C1957   1.484       .  S
C27          C28   1.396       .  A
C28          C29   1.396       .  A
C28          H35   1.086       .  S
C29        C1981   1.479       .  S
C36        C2077   1.480       .  S
C36          C37   1.397       .  A
C36          C41   1.415       .  A
C37          C38   1.395       .  A
C37          H56   1.086       .  S
C38        C1861   1.483       .  S
C38          C39   1.413       .  A
C39          C40   1.423       .  A
C39          C46   1.405       .  A
C40          C41   1.421       .  A
C40          C45   1.421       .  A
C41          C42   1.406       .  A
C42          C43   1.398       .  A
C42          H52   1.083       .  S
C43          C44   1.406       .  A
C43          H53   1.083       .  S
C44          C45   1.423       .  A
C44          C51   1.417       .  A
C45          C48   1.421       .  A
C46          C47   1.393       .  A
C46          H54   1.083       .  S
C47          C48   1.405       .  A
C47          H55   1.083       .  S
C48          C49   1.411       .  A
C49        C1909   1.478       .  S
C49          C50   1.396       .  A
C50          C51   1.396       .  A
C50          H57   1.086       .  S
C51        C1885   1.485       .  S
O58          C61   1.264       .  A
O58         Cd63   2.463   1_554  S
C59          O68   1.267       .  A
C59          O64   1.265       .  A
C59        C1990   1.482       .  S
O60          C66   1.265       .  A
O60         Cd63   2.480       .  S
C61          O69   1.266       .  A
C61        C1918   1.484       .  S
C62          O67   1.265   1_556  A
C62          O65   1.262       .  A
C62        C1822   1.487       .  S
Cd63         O70   2.487   1_556  S
Cd63         O69   2.468   1_556  S
Cd63         O68   2.449       .  S
Cd63         O64   2.469       .  S
Cd63         O67   2.501   1_556  S
Cd63         O65   2.463       .  S
C66          O70   1.265   1_556  A
C66        C1837   1.490       .  S
C71        C1750   1.487       .  S
C71          C72   1.395       .  A
C71          C76   1.417       .  A
C72          C73   1.396       .  A
C72          H91   1.086       .  S
C73        C1789   1.478       .  S
C73          C74   1.413       .  A
C74          C75   1.420       .  A
C74          C81   1.407       .  A
C75          C76   1.425       .  A
C75          C80   1.421       .  A
C76          C77   1.404       .  A
C77          C78   1.395       .  A
C77          H87   1.083       .  S
C78          C79   1.406       .  A
C78          H88   1.083       .  S
C79          C80   1.420       .  A
C79          C86   1.413       .  A
C80          C83   1.425       .  A
C81          C82   1.396       .  A
C81          H89   1.083       .  S
C82          C83   1.404       .  A
C82          H90   1.083       .  S
C83          C84   1.417       .  A
C84        C1726   1.486       .  S
C84          C85   1.394       .  A
C85          C86   1.396       .  A
C85          H92   1.086       .  S
C86        C1765   1.478       .  S
C93        C1693   1.480       .  S
C93          C94   1.395       .  A
C93          C98   1.412       .  A
C94          C95   1.397       .  A
C94         H113   1.086       .  S
C95        C1621   1.487       .  S
C95          C96   1.418       .  A
C96          C97   1.424       .  A
C96         C103   1.406       .  A
C97          C98   1.421       .  A
C97         C102   1.421       .  A
C98          C99   1.405       .  A
C99         C100   1.395       .  A
C99         H109   1.083       .  S
C100        C101   1.405       .  A
C100        H110   1.083       .  S
C101        C102   1.424       .  A
C101        C108   1.416       .  A
C102        C105   1.422       .  A
C103        C104   1.397       .  A
C103        H111   1.082       .  S
C104        C105   1.405       .  A
C104        H112   1.083       .  S
C105        C106   1.414       .  A
C106       C1678   1.479       .  S
C106        C107   1.395       .  A
C107        C108   1.395       .  A
C107        H114   1.086       .  S
C108       C1654   1.485       .  S
O115        C118   1.265       .  A
O115       Cd120   2.481       .  S
C116        O125   1.266       .  A
C116        O121   1.266       .  A
C116       C1774   1.484       .  S
O117        C123   1.265       .  A
O117       Cd120   2.494       .  S
C118        O126   1.267       .  A
C118       C1702   1.486       .  S
C119        O124   1.266       .  A
C119        O122   1.263       .  A
C119       C1597   1.492       .  S
Cd120       O127   2.475       .  S
Cd120       O126   2.458       .  S
Cd120       O125   2.465       .  S
Cd120       O121   2.464       .  S
Cd120       O124   2.502       .  S
Cd120       O122   2.485       .  S
C123        O127   1.263       .  A
C123       C1582   1.489       .  S
O128        C131   1.265       .  A
O128       Cd133   2.467   1_554  S
C129        O138   1.267       .  A
C129        O134   1.265       .  A
C129       C1669   1.486       .  S
O130        C136   1.266       .  A
O130       Cd133   2.492       .  S
C131        O139   1.265       .  A
C131       C1798   1.481       .  S
C132        O137   1.265       .  A
C132        O135   1.265   1_554  A
C132       C1534   1.487       .  S
Cd133       O140   2.449   1_556  S
Cd133       O139   2.452   1_556  S
Cd133       O138   2.475       .  S
Cd133       O134   2.458       .  S
Cd133       O137   2.495   1_556  S
Cd133       O135   2.464       .  S
C136        O140   1.262   1_556  A
C136       C1558   1.485       .  S
O141        C144   1.264       .  A
O141       Cd146   2.446       .  S
C142        O151   1.267       .  A
C142        O147   1.265       .  A
C142       C1501   1.485       .  S
O143        C149   1.265       .  A
O143       Cd146   2.486       .  S
C144        O152   1.267       .  A
C144       C1477   1.481       .  S
C145        O150   1.266       .  A
C145        O148   1.263       .  A
C145       C1966   1.491       .  S
Cd146       O153   2.486       .  S
Cd146       O152   2.479       .  S
Cd146       O151   2.464       .  S
Cd146       O147   2.466       .  S
Cd146       O150   2.504       .  S
Cd146       O148   2.477       .  S
C149        O153   1.264       .  A
C149       C1630   1.491       .  S
O154        C157   1.265       .  A
O154       Cd159   2.459       .  S
C155        O164   1.266       .  A
C155        O160   1.265       .  A
C155       C1429   1.484       .  S
O156        C162   1.265       .  A
O156       Cd159   2.501       .  S
C157        O165   1.266       .  A
C157       C1453   1.483       .  S
C158        O163   1.265       .  A
C158        O161   1.264       .  A
C158       C1390   1.489       .  S
Cd159       O166   2.476       .  S
Cd159       O165   2.458       .  S
Cd159       O164   2.450       .  S
Cd159       O160   2.473       .  S
Cd159       O163   2.490       .  S
Cd159       O161   2.480       .  S
C162        O166   1.263       .  A
C162       C1405   1.489       .  S
C167       C1846   1.481       .  S
C167        C168   1.394       .  A
C167        C172   1.414   1_556  A
C168        C169   1.395       .  A
C168        H187   1.086       .  S
C169       C1486   1.475       .  S
C169        C170   1.411       .  A
C170        C171   1.420       .  A
C170        C177   1.405   1_655  A
C171        C172   1.423   1_556  A
C171        C176   1.419   1_656  A
C172        C173   1.404       .  A
C173        C174   1.395       .  A
C173        H183   1.083       .  S
C174        C175   1.406   1_655  A
C174        H184   1.083       .  S
C175        C176   1.420       .  A
C175        C182   1.411       .  A
C176        C179   1.423   1_554  A
C177        C178   1.394       .  A
C177        H185   1.083       .  S
C178        C179   1.405       .  A
C178        H186   1.082       .  S
C179        C180   1.416   1_556  A
C180       C1357   1.486   1_554  S
C180        C181   1.397       .  A
C181        C182   1.397       .  A
C181        H188   1.086       .  S
C182       C1438   1.478       .  S
C189       C1606   1.487       .  S
C189        C190   1.397       .  A
C189        C194   1.418       .  A
C190        C191   1.397       .  A
C190        H209   1.086       .  S
C191       C1510   1.481       .  S
C191        C192   1.414       .  A
C192        C193   1.421       .  A
C192        C199   1.406   1_655  A
C193        C194   1.424       .  A
C193        C198   1.422   1_655  A
C194        C195   1.405       .  A
C195        C196   1.396       .  A
C195        H205   1.083       .  S
C196        C197   1.406   1_655  A
C196        H206   1.083       .  S
C197        C198   1.421       .  A
C197        C204   1.413       .  A
C198        C201   1.425       .  A
C199        C200   1.396       .  A
C199        H207   1.083       .  S
C200        C201   1.405       .  A
C200        H208   1.082       .  S
C201        C202   1.420       .  A
C202       C1333   1.492       .  S
C202        C203   1.397       .  A
C203        C204   1.395       .  A
C203        H210   1.086       .  S
C204       C1462   1.479       .  S
C211       C1813   1.480   1_554  S
C211        C212   1.395       .  A
C211        C216   1.414   1_554  A
C212        C213   1.396       .  A
C212        H231   1.086       .  S
C213       C1309   1.477       .  S
C213        C214   1.411       .  A
C214        C215   1.420       .  A
C214        C221   1.405       .  A
C215        C216   1.422   1_554  A
C215        C220   1.419   1_554  A
C216        C217   1.406       .  A
C217        C218   1.396       .  A
C217        H227   1.083       .  S
C218        C219   1.405       .  A
C218        H228   1.083       .  S
C219        C220   1.421       .  A
C219        C226   1.412       .  A
C220        C223   1.422   1_556  A
C221        C222   1.394       .  A
C221        H229   1.083       .  S
C222        C223   1.405       .  A
C222        H230   1.083       .  S
C223        C224   1.413   1_554  A
C224       C1270   1.481       .  S
C224        C225   1.395       .  A
C225        C226   1.396       .  A
C225        H232   1.086       .  S
C226       C1294   1.477       .  S
O233        C236   1.266       .  A
O233       Cd238   2.483       .  S
C234        O243   1.266       .  A
C234        O239   1.263       .  A
C234       C1285   1.485       .  S
O235        C241   1.265       .  A
O235       Cd238   2.496       .  S
C236        O244   1.267       .  A
C236       C1237   1.488       .  S
C237        O242   1.268       .  A
C237        O240   1.263       .  A
C237       C1189   1.489       .  S
Cd238       O245   2.492       .  S
Cd238       O244   2.474       .  S
Cd238       O243   2.480       .  S
Cd238       O239   2.463       .  S
Cd238       O242   2.527       .  S
Cd238       O240   2.456       .  S
C241        O245   1.265       .  A
C241       C1222   1.494       .  S
C246       C1573   1.482       .  S
C246        C247   1.395       .  A
C246        C251   1.417       .  A
C247        C248   1.395       .  A
C247        H266   1.086       .  S
C248       C1165   1.480       .  S
C248        C249   1.412       .  A
C249        C250   1.422       .  A
C249        C256   1.405       .  A
C250        C251   1.422       .  A
C250        C255   1.421       .  A
C251        C252   1.407       .  A
C252        C253   1.399       .  A
C252        H262   1.083       .  S
C253        C254   1.406       .  A
C253        H263   1.083       .  S
C254        C255   1.423       .  A
C254        C261   1.418       .  A
C255        C258   1.422       .  A
C256        C257   1.392       .  A
C256        H264   1.083       .  S
C257        C258   1.405       .  A
C257        H265   1.083       .  S
C258        C259   1.412       .  A
C259       C1141   1.481       .  S
C259        C260   1.394       .  A
C260        C261   1.396       .  A
C260        H267   1.086       .  S
C261       C1246   1.484       .  S
O268        C271   1.265       .  A
O268       Cd273   2.471       .  S
C269        O278   1.267       .  A
C269        O274   1.264       .  A
C269       C1174   1.484       .  S
O270        C276   1.267       .  A
O270       Cd273   2.511       .  S
C271        O279   1.265       .  A
C271       C1318   1.483       .  S
C272        O277   1.266       .  A
C272        O275   1.264       .  A
C272       C1894   1.491       .  S
Cd273       O280   2.473       .  S
Cd273       O279   2.454       .  S
Cd273       O278   2.478       .  S
Cd273       O274   2.456       .  S
Cd273       O277   2.496       .  S
Cd273       O275   2.482       .  S
C276        O280   1.263       .  A
C276       C1717   1.492       .  S
C281       C1102   1.476       .  S
C281        C282   1.396       .  A
C281        C286   1.409       .  A
C282        C283   1.396       .  A
C282        H301   1.086       .  S
C283       C1198   1.486       .  S
C283        C284   1.417       .  A
C284        C285   1.424       .  A
C284        C291   1.405       .  A
C285        C286   1.419       .  A
C285        C290   1.419       .  A
C286        C287   1.406       .  A
C287        C288   1.393       .  A
C287        H297   1.083       .  S
C288        C289   1.404       .  A
C288        H298   1.083       .  S
C289        C290   1.423       .  A
C289        C296   1.414       .  A
C290        C293   1.419       .  A
C291        C292   1.396       .  A
C291        H299   1.082       .  S
C292        C293   1.406       .  A
C292        H300   1.083       .  S
C293        C294   1.412       .  A
C294       C1126   1.477       .  S
C294        C295   1.397       .  A
C295        C296   1.395       .  A
C295        H302   1.086       .  S
C296       C1078   1.483       .  S
O303        C306   1.265       .  A
O303       Cd308   2.475       .  S
C304        O313   1.267       .  A
C304        O309   1.265       .  A
C304       C1117   1.480       .  S
O305        C311   1.267       .  A
O305       Cd308   2.498       .  S
C306        O314   1.266       .  A
C306       C1045   1.486       .  S
C307        O312   1.266       .  A
C307        O310   1.260       .  A
C307       C1021   1.488       .  S
Cd308       O315   2.476       .  S
Cd308       O314   2.472       .  S
Cd308       O313   2.476       .  S
Cd308       O309   2.448       .  S
Cd308       O312   2.511       .  S
Cd308       O310   2.464       .  S
C311        O315   1.264       .  A
C311        C997   1.491       .  S
C316       C1381   1.484       .  S
C316        C317   1.394       .  A
C316        C321   1.414       .  A
C317        C318   1.397       .  A
C317        H336   1.086       .  S
C318        C973   1.487       .  S
C318        C319   1.419       .  A
C319        C320   1.424       .  A
C319        C326   1.407       .  A
C320        C321   1.424       .  A
C320        C325   1.423       .  A
C321        C322   1.405       .  A
C322        C323   1.396       .  A
C322        H332   1.083       .  S
C323        C324   1.406       .  A
C323        H333   1.083       .  S
C324        C325   1.423       .  A
C324        C331   1.415       .  A
C325        C328   1.424       .  A
C326        C327   1.399       .  A
C326        H334   1.082       .  S
C327        C328   1.406       .  A
C327        H335   1.083       .  S
C328        C329   1.419       .  A
C329        C949   1.487       .  S
C329        C330   1.396       .  A
C330        C331   1.396       .  A
C330        H337   1.086       .  S
C331       C1054   1.483       .  S
O338        C341   1.265       .  A
O338       Cd343   2.468       .  S
C339        O348   1.266       .  A
C339        O344   1.265       .  A
C339        C982   1.486       .  S
O340        C346   1.266   1_554  A
O340       Cd343   2.488   1_554  S
C341        O349   1.265       .  A
C341       C1093   1.483       .  S
C342        O347   1.265       .  A
C342        O345   1.264   1_556  A
C342       C1366   1.488       .  S
Cd343       O350   2.460       .  S
Cd343       O349   2.456       .  S
Cd343       O348   2.477   1_556  S
Cd343       O344   2.460   1_556  S
Cd343       O347   2.503       .  S
Cd343       O345   2.458   1_556  S
C346        O350   1.264       .  A
C346       C1261   1.486   1_556  S
O351        C354   1.265       .  A
O351       Cd356   2.461       .  S
C352        O361   1.267   1_565  A
C352        O357   1.265       .  A
C352        C901   1.482       .  S
O353        C359   1.265       .  A
O353       Cd356   2.501       .  S
C354        O362   1.266       .  A
C354        C934   1.483   1_565  S
C355        O360   1.266       .  A
C355        O358   1.264       .  A
C355       C1645   1.487       .  S
Cd356       O363   2.467       .  S
Cd356       O362   2.464       .  S
Cd356       O361   2.462   1_565  S
Cd356       O357   2.460       .  S
Cd356       O360   2.493   1_565  S
Cd356       O358   2.467   1_565  S
C359        O363   1.263       .  A
C359       C1933   1.488       .  S
O364        C367   1.267   1_545  A
O364       Cd369   2.481   1_545  S
C365        O374   1.267       .  A
C365        O370   1.265   1_565  A
C365        C862   1.485       .  S
O366        C372   1.267       .  A
O366       Cd369   2.501       .  S
C367        O375   1.263       .  A
C367        C886   1.484       .  S
C368        O373   1.266       .  A
C368        O371   1.263       .  A
C368        C958   1.494       .  S
Cd369       O376   2.473       .  S
Cd369       O375   2.468       .  S
Cd369       O374   2.462       .  S
Cd369       O370   2.470   1_565  S
Cd369       O373   2.511   1_565  S
Cd369       O371   2.488   1_565  S
C372        O376   1.263       .  A
C372        C838   1.491       .  S
C377       C1525   1.482   1_556  S
C377        C378   1.395       .  A
C377        C382   1.414   1_556  A
C378        C379   1.395   1_545  A
C378        H397   1.086       .  S
C379        C910   1.476       .  S
C379        C380   1.412       .  A
C380        C381   1.420       .  A
C380        C387   1.406       .  A
C381        C382   1.423   1_566  A
C381        C386   1.419   1_556  A
C382        C383   1.404       .  A
C383        C384   1.395       .  A
C383        H393   1.083       .  S
C384        C385   1.407   1_545  A
C384        H394   1.083       .  S
C385        C386   1.420       .  A
C385        C392   1.412       .  A
C386        C389   1.423   1_554  A
C387        C388   1.395       .  A
C387        H395   1.083       .  S
C388        C389   1.405       .  A
C388        H396   1.083       .  S
C389        C390   1.415   1_556  A
C390        C814   1.484       .  S
C390        C391   1.396       .  A
C391        C392   1.397       .  A
C391        H398   1.086       .  S
C392        C853   1.477       .  S
C399       C2038   1.487       .  S
C399        C400   1.398       .  A
C399        C404   1.417       .  A
C400        C401   1.395       .  A
C400        H419   1.086       .  S
C401        C925   1.479       .  S
C401        C402   1.412       .  A
C402        C403   1.421       .  A
C402        C409   1.405   1_565  A
C403        C404   1.423       .  A
C403        C408   1.420       .  A
C404        C405   1.407       .  A
C405        C406   1.395       .  A
C405        H415   1.082       .  S
C406        C407   1.404       .  A
C406        H416   1.083       .  S
C407        C408   1.422       .  A
C407        C414   1.414       .  A
C408        C411   1.422   1_565  A
C409        C410   1.394       .  A
C409        H417   1.083       .  S
C410        C411   1.405       .  A
C410        H418   1.083       .  S
C411        C412   1.413       .  A
C412       C1030   1.478       .  S
C412        C413   1.394       .  A
C413        C414   1.396   1_545  A
C413        H420   1.086       .  S
C414        C877   1.480       .  S
C421       C1414   1.485       .  S
C421        C422   1.393       .  A
C421        C426   1.417       .  A
C422        C423   1.394       .  A
C422        H441   1.086       .  S
C423        C757   1.472       .  S
C423        C424   1.409       .  A
C424        C425   1.419       .  A
C424        C431   1.405       .  A
C425        C426   1.425       .  A
C425        C430   1.420       .  A
C426        C427   1.404       .  A
C427        C428   1.396       .  A
C427        H437   1.083       .  S
C428        C429   1.407       .  A
C428        H438   1.083       .  S
C429        C430   1.420       .  A
C429        C436   1.411       .  A
C430        C433   1.425       .  A
C431        C432   1.395       .  A
C431        H439   1.083       .  S
C432        C433   1.405       .  A
C432        H440   1.082       .  S
C433        C434   1.417       .  A
C434        C829   1.489       .  S
C434        C435   1.396       .  A
C435        C436   1.396       .  A
C435        H442   1.086       .  S
C436        C781   1.477       .  S
O443        C446   1.264       .  A
O443       Cd448   2.446       .  S
C444        O453   1.266       .  A
C444        O449   1.265       .  A
C444        C733   1.478       .  S
O445        C451   1.265       .  A
O445       Cd448   2.497       .  S
C446        O454   1.266       .  A
C446        C766   1.480       .  S
C447        O452   1.266       .  A
C447        O450   1.265       .  A
C447       C1150   1.485       .  S
Cd448       O455   2.473       .  S
Cd448       O454   2.465       .  S
Cd448       O453   2.438       .  S
Cd448       O449   2.466       .  S
Cd448       O452   2.478       .  S
Cd448       O450   2.471       .  S
C451        O455   1.264       .  A
C451       C1342   1.489       .  S
C456       C1213   1.489       .  S
C456        C457   1.396       .  A
C456        C461   1.420       .  A
C457        C458   1.395       .  A
C457        H476   1.086       .  S
C458        C742   1.476       .  S
C458        C459   1.411       .  A
C459        C460   1.419       .  A
C459        C466   1.407       .  A
C460        C461   1.426       .  A
C460        C465   1.422       .  A
C461        C462   1.405       .  A
C462        C463   1.399       .  A
C462        H472   1.083       .  S
C463        C464   1.408       .  A
C463        H473   1.083       .  S
C464        C465   1.420       .  A
C464        C471   1.415       .  A
C465        C468   1.425       .  A
C466        C467   1.393       .  A
C466        H474   1.082       .  S
C467        C468   1.403       .  A
C467        H475   1.083       .  S
C468        C469   1.415       .  A
C469        C685   1.486       .  S
C469        C470   1.395       .  A
C470        C471   1.396       .  A
C470        H477   1.086       .  S
C471        C709   1.479       .  S
O478        C481   1.267       .  A
O478       Cd483   2.478   1_554  S
C479        O488   1.266       .  A
C479        O484   1.265       .  A
C479        C718   1.487       .  S
O480        C486   1.266   1_556  A
O480       Cd483   2.509       .  S
C481        O489   1.264       .  A
C481        C790   1.485       .  S
C482        O487   1.267   1_556  A
C482        O485   1.264       .  A
C482        C805   1.492       .  S
Cd483       O490   2.470   1_556  S
Cd483       O489   2.459   1_556  S
Cd483       O488   2.482       .  S
Cd483       O484   2.469       .  S
Cd483       O487   2.497   1_556  S
Cd483       O485   2.481       .  S
C486        O490   1.263       .  A
C486        C661   1.489       .  S
O491        C494   1.264       .  A
O491       Cd496   2.448       .  S
C492        O501   1.263   1_565  A
C492        O497   1.268       .  A
C492        C613   1.482       .  S
O493        C499   1.267       .  A
O493       Cd496   2.498       .  S
C494        O502   1.267   1_565  A
C494        C637   1.481       .  S
C495        O500   1.267       .  A
C495        O498   1.263       .  A
C495       C1069   1.488       .  S
Cd496       O503   2.486       .  S
Cd496       O502   2.461   1_565  S
Cd496       O501   2.442   1_565  S
Cd496       O497   2.471       .  S
Cd496       O500   2.499   1_565  S
Cd496       O498   2.466   1_565  S
C499        O503   1.262       .  A
C499        C694   1.491       .  S
O504        C507   1.265       .  A
O504       Cd509   2.468       .  S
C505        O514   1.267       .  A
C505        O510   1.265       .  A
C505        C598   1.485       .  S
O506        C512   1.266       .  A
O506       Cd509   2.513   1_545  S
C507        O515   1.266       .  A
C507        C574   1.485       .  S
C508        O513   1.265       .  A
C508        O511   1.263       .  A
C508       C1870   1.488       .  S
Cd509       O516   2.454   1_565  S
Cd509       O515   2.465       .  S
Cd509       O514   2.471       .  S
Cd509       O510   2.458       .  S
Cd509       O513   2.507       .  S
Cd509       O511   2.463       .  S
C512        O516   1.263       .  A
C512       C1741   1.490       .  S
C517        C565   1.476       .  S
C517        C518   1.395       .  A
C517        C522   1.413       .  A
C518        C519   1.394   1_565  A
C518        H537   1.086   1_565  S
C519       C1549   1.482       .  S
C519        C520   1.413   1_544  A
C520        C521   1.423   1_556  A
C520        C527   1.404   1_565  A
C521        C522   1.420       .  A
C521        C526   1.419   1_654  A
C522        C523   1.406   1_655  A
C523        C524   1.398       .  A
C523        H533   1.083       .  S
C524        C525   1.406       .  A
C524        H534   1.083       .  S
C525        C526   1.424   1_554  A
C525        C532   1.418   1_554  A
C526        C529   1.419       .  A
C527        C528   1.391   1_545  A
C527        H535   1.082       .  S
C528        C529   1.405   1_655  A
C528        H536   1.083   1_565  S
C529        C530   1.408       .  A
C530        C622   1.474       .  S
C530        C531   1.395       .  A
C531        C532   1.397       .  A
C531        H538   1.086       .  S
C532        C670   1.485   1_556  S
C539        C589   1.475       .  S
C539        C540   1.394       .  A
C539        C544   1.411       .  A
C540        C541   1.394       .  A
C540        H559   1.086       .  S
C541       C2014   1.486       .  S
C541        C542   1.417       .  A
C542        C543   1.426       .  A
C542        C549   1.404       .  A
C543        C544   1.419       .  A
C543        C548   1.420   1_655  A
C544        C545   1.406   1_655  A
C545        C546   1.395       .  A
C545        H555   1.083       .  S
C546        C547   1.405       .  A
C546        H556   1.082       .  S
C547        C548   1.425       .  A
C547        C554   1.418       .  A
C548        C551   1.419       .  A
C549        C550   1.396       .  A
C549        H557   1.083       .  S
C550        C551   1.407   1_655  A
C550        H558   1.083       .  S
C551        C552   1.411       .  A
C552        C646   1.475       .  S
C552        C553   1.395       .  A
C553        C554   1.397       .  A
C553        H560   1.086       .  S
C554       C1006   1.489   1_565  S
C561        C562   1.403   1_545  A
C561        C566   1.399       .  A
C561        H571   1.084       .  S
C562        C567   1.479       .  S
C562        C563   1.408       .  A
C563        C564   1.400       .  A
C563        O568   1.371       .  S
C564        C565   1.402       .  A
C564        H569   1.084       .  S
C565        C566   1.407   1_565  A
C566        O570   1.371       .  S
C567        C572   1.405       .  A
C567        C576   1.402       .  A
O568        H584   0.992       .  S
O570        H581   0.991       .  S
C572        C573   1.402       .  A
C572        O577   1.371       .  S
C573        C574   1.409       .  A
C573        H578   1.083       .  S
C574        C575   1.412       .  A
C575        C576   1.399       .  A
C575        O579   1.371       .  S
C576        H580   1.084       .  S
O577        H582   0.992   1_565  S
O579        H583   0.992       .  S
C585        C586   1.403       .  A
C585        C590   1.400       .  A
C585        H595   1.084       .  S
C586        C591   1.479       .  S
C586        C587   1.408   1_565  A
C587        C588   1.398       .  A
C587        O592   1.371       .  S
C588        C589   1.401   1_545  A
C588        H593   1.084       .  S
C589        C590   1.406       .  A
C590        O594   1.372       .  S
C591        C596   1.405       .  A
C591        C600   1.402       .  A
O592        H608   0.992       .  S
O594        H605   0.992       .  S
C596        C597   1.401       .  A
C596        O601   1.372       .  S
C597        C598   1.409       .  A
C597        H602   1.083       .  S
C598        C599   1.412       .  A
C599        C600   1.399       .  A
C599        O603   1.371       .  S
C600        H604   1.084       .  S
O601        H606   0.992       .  S
O603        H607   0.992       .  S
C609        C610   1.400   1_545  A
C609        C614   1.401       .  A
C609        H619   1.084       .  S
C610        C615   1.477       .  S
C610        C611   1.408       .  A
C611        C612   1.397       .  A
C611        O616   1.372       .  S
C612        C613   1.404       .  A
C612        H617   1.083       .  S
C613        C614   1.415   1_565  A
C614        O618   1.371       .  S
C615        C620   1.408   1_565  A
C615        C624   1.403       .  A
O616        H632   0.992       .  S
O618        H629   0.992       .  S
C620        C621   1.398       .  A
C620        O625   1.372       .  S
C621        C622   1.401   1_545  A
C621        H626   1.084       .  S
C622        C623   1.405       .  A
C623        C624   1.398       .  A
C623        O627   1.372       .  S
C624        H628   1.084       .  S
O625        H630   0.992       .  S
O627        H631   0.992       .  S
C633        C634   1.400       .  A
C633        C638   1.400       .  A
C633        H643   1.084       .  S
C634        C639   1.477       .  S
C634        C635   1.407   1_565  A
C635        C636   1.397       .  A
C635        O640   1.372       .  S
C636        C637   1.404   1_545  A
C636        H641   1.083       .  S
C637        C638   1.414       .  A
C638        O642   1.371       .  S
C639        C644   1.409       .  A
C639        C648   1.402   1_565  A
O640        H656   0.992       .  S
O642        H653   0.992       .  S
C644        C645   1.399       .  A
C644        O649   1.372       .  S
C645        C646   1.401       .  A
C645        H650   1.084       .  S
C646        C647   1.406   1_565  A
C647        C648   1.398       .  A
C647        O651   1.371       .  S
C648        H652   1.084       .  S
O649        H654   0.992       .  S
O651        H655   0.992       .  S
C657        C658   1.405       .  A
C657        C662   1.405   1_554  A
C657        H667   1.083   1_554  S
C658        C663   1.487       .  S
C658        C659   1.407       .  A
C659        C660   1.401       .  A
C659        O664   1.371       .  S
C660        C661   1.408       .  A
C660        H665   1.083       .  S
C661        C662   1.412   1_554  A
C662        O666   1.372       .  S
C663        C668   1.410       .  A
C663        C672   1.404       .  A
O664        H680   0.992       .  S
O666        H677   0.992       .  S
C668        C669   1.406       .  A
C668        O673   1.371       .  S
C669        C670   1.403       .  A
C669        H674   1.083       .  S
C670        C671   1.408   1_554  A
C671        C672   1.400   1_556  A
C671        O675   1.372       .  S
C672        H676   1.084   1_554  S
O673        H678   0.992       .  S
O675        H679   0.992       .  S
C681        C682   1.406       .  A
C681        C686   1.403       .  A
C681        H691   1.083       .  S
C682        C687   1.490       .  S
C682        C683   1.410       .  A
C683        C684   1.403       .  A
C683        O688   1.371       .  S
C684        C685   1.403       .  A
C684        H689   1.084       .  S
C685        C686   1.408       .  A
C686        O690   1.372       .  S
C687        C692   1.409       .  A
C687        C696   1.404       .  A
O688        H704   0.992       .  S
O690        H701   0.992       .  S
C692        C693   1.401       .  A
C692        O697   1.372       .  S
C693        C694   1.404       .  A
C693        H698   1.083       .  S
C694        C695   1.416       .  A
C695        C696   1.406       .  A
C695        O699   1.372       .  S
C696        H700   1.084       .  S
O697        H702   0.992       .  S
O699        H703   0.992       .  S
C705        C706   1.406       .  A
C705        C710   1.401       .  A
C705        H715   1.083       .  S
C706        C711   1.485       .  S
C706        C707   1.408       .  A
C707        C708   1.399       .  A
C707        O712   1.371       .  S
C708        C709   1.403       .  A
C708        H713   1.084       .  S
C709        C710   1.405       .  A
C710        O714   1.371       .  S
C711        C716   1.406       .  A
C711        C720   1.404       .  A
O712        H728   0.992       .  S
O714        H725   0.992       .  S
C716        C717   1.401       .  A
C716        O721   1.372       .  S
C717        C718   1.407       .  A
C717        H722   1.083       .  S
C718        C719   1.412       .  A
C719        C720   1.402       .  A
C719        O723   1.372       .  S
C720        H724   1.084       .  S
O721        H726   0.992       .  S
O723        H727   0.992       .  S
C729        C730   1.403       .  A
C729        C734   1.402       .  A
C729        H739   1.083       .  S
C730        C735   1.478       .  S
C730        C731   1.407       .  A
C731        C732   1.394       .  A
C731        O736   1.372       .  S
C732        C733   1.403       .  A
C732        H737   1.084       .  S
C733        C734   1.413       .  A
C734        O738   1.372       .  S
C735        C740   1.408       .  A
C735        C744   1.404       .  A
O736        H752   0.992       .  S
O738        H749   0.992       .  S
C740        C741   1.399       .  A
C740        O745   1.371       .  S
C741        C742   1.401       .  A
C741        H746   1.084       .  S
C742        C743   1.406       .  A
C743        C744   1.397       .  A
C743        O747   1.372       .  S
C744        H748   1.084       .  S
O745        H750   0.992       .  S
O747        H751   0.992       .  S
C753        C754   1.404       .  A
C753        C758   1.399       .  A
C753        H763   1.083       .  S
C754        C759   1.479       .  S
C754        C755   1.409       .  A
C755        C756   1.397       .  A
C755        O760   1.372       .  S
C756        C757   1.400       .  A
C756        H761   1.084       .  S
C757        C758   1.405       .  A
C758        O762   1.372       .  S
C759        C764   1.409       .  A
C759        C768   1.401       .  A
O760        H776   0.992       .  S
O762        H773   0.992       .  S
C764        C765   1.399       .  A
C764        O769   1.372       .  S
C765        C766   1.405       .  A
C765        H770   1.083       .  S
C766        C767   1.413       .  A
C767        C768   1.398       .  A
C767        O771   1.371       .  S
C768        H772   1.084       .  S
O769        H774   0.992       .  S
O771        H775   0.992       .  S
C777        C778   1.403       .  A
C777        C782   1.401       .  A
C777        H787   1.084       .  S
C778        C783   1.477       .  S
C778        C779   1.408       .  A
C779        C780   1.398       .  A
C779        O784   1.372       .  S
C780        C781   1.402       .  A
C780        H785   1.084       .  S
C781        C782   1.407       .  A
C782        O786   1.372       .  S
C783        C788   1.407       .  A
C783        C792   1.400       .  A
O784        H800   0.992       .  S
O786        H797   0.992       .  S
C788        C789   1.399       .  A
C788        O793   1.372       .  S
C789        C790   1.406       .  A
C789        H794   1.083       .  S
C790        C791   1.415       .  A
C791        C792   1.401       .  A
C791        O795   1.371       .  S
C792        H796   1.084       .  S
O793        H798   0.992       .  S
O795        H799   0.992       .  S
C801        C802   1.402       .  A
C801        C806   1.404       .  A
C801        H811   1.084       .  S
C802        C807   1.484       .  S
C802        C803   1.407   1_556  A
C803        C804   1.402       .  A
C803        O808   1.372       .  S
C804        C805   1.407   1_554  A
C804        H809   1.083       .  S
C805        C806   1.416       .  A
C806        O810   1.371       .  S
C807        C812   1.408       .  A
C807        C816   1.405       .  A
O808        H824   0.992       .  S
O810        H821   0.992       .  S
C812        C813   1.401   1_556  A
C812        O817   1.371       .  S
C813        C814   1.402       .  A
C813        H818   1.084       .  S
C814        C815   1.408   1_554  A
C815        C816   1.404       .  A
C815        O819   1.371   1_565  S
C816        H820   1.083       .  S
O817        H822   0.992   1_556  S
O819        H823   0.992       .  S
C825        C826   1.403       .  A
C825        C830   1.400       .  A
C825        H835   1.084       .  S
C826        C831   1.487       .  S
C826        C827   1.411       .  A
C827        C828   1.404       .  A
C827        O832   1.371       .  S
C828        C829   1.403       .  A
C828        H833   1.083       .  S
C829        C830   1.410       .  A
C830        O834   1.372       .  S
C831        C836   1.410       .  A
C831        C840   1.402       .  A
O832        H848   0.992       .  S
O834        H845   0.992       .  S
C836        C837   1.403       .  A
C836        O841   1.372       .  S
C837        C838   1.406       .  A
C837        H842   1.083       .  S
C838        C839   1.415       .  A
C839        C840   1.403       .  A
C839        O843   1.371       .  S
C840        H844   1.084       .  S
O841        H846   0.992       .  S
O843        H847   0.992       .  S
C849        C850   1.406       .  A
C849        C854   1.400       .  A
C849        H859   1.084       .  S
C850        C855   1.484       .  S
C850        C851   1.410   1_565  A
C851        C852   1.399       .  A
C851        O856   1.372       .  S
C852        C853   1.400   1_545  A
C852        H857   1.084       .  S
C853        C854   1.406       .  A
C854        O858   1.371       .  S
C855        C860   1.409       .  A
C855        C864   1.403   1_565  A
O856        H872   0.992       .  S
O858        H869   0.992       .  S
C860        C861   1.397       .  A
C860        O865   1.372       .  S
C861        C862   1.404       .  A
C861        H866   1.083       .  S
C862        C863   1.414   1_565  A
C863        C864   1.402       .  A
C863        O867   1.371       .  S
C864        H868   1.084       .  S
O865        H870   0.992       .  S
O867        H871   0.992       .  S
C873        C874   1.405   1_545  A
C873        C878   1.402       .  A
C873        H883   1.084       .  S
C874        C879   1.484       .  S
C874        C875   1.409       .  A
C875        C876   1.399       .  A
C875        O880   1.372       .  S
C876        C877   1.402       .  A
C876        H881   1.084       .  S
C877        C878   1.406   1_565  A
C878        O882   1.372       .  S
C879        C884   1.409   1_565  A
C879        C888   1.403       .  A
O880        H896   0.992       .  S
O882        H893   0.992       .  S
C884        C885   1.399       .  A
C884        O889   1.372       .  S
C885        C886   1.404   1_545  A
C885        H890   1.083       .  S
C886        C887   1.414       .  A
C887        C888   1.403       .  A
C887        O891   1.372       .  S
C888        H892   1.084       .  S
O889        H894   0.992       .  S
O891        H895   0.992       .  S
C897        C898   1.400       .  A
C897        C902   1.402       .  A
C897        H907   1.084       .  S
C898        C903   1.476       .  S
C898        C899   1.406   1_565  A
C899        C900   1.398       .  A
C899        O904   1.372       .  S
C900        C901   1.405   1_545  A
C900        H905   1.083       .  S
C901        C902   1.414       .  A
C902        O906   1.371       .  S
C903        C908   1.407   1_565  A
C903        C912   1.402       .  A
O904        H920   0.992       .  S
O906        H917   0.992       .  S
C908        C909   1.400       .  A
C908        O913   1.371       .  S
C909        C910   1.402   1_545  A
C909        H914   1.084       .  S
C910        C911   1.406       .  A
C911        C912   1.399       .  A
C911        O915   1.371       .  S
C912        H916   1.084       .  S
O913        H918   0.992       .  S
O915        H919   0.992       .  S
C921        C922   1.405   1_565  A
C921        C926   1.399       .  A
C921        H931   1.083       .  S
C922        C927   1.485       .  S
C922        C923   1.411       .  A
C923        C924   1.400       .  A
C923        O928   1.372       .  S
C924        C925   1.402   1_545  A
C924        H929   1.084       .  S
C925        C926   1.406       .  A
C926        O930   1.371       .  S
C927        C932   1.407   1_545  A
C927        C936   1.405       .  A
O928        H944   0.992       .  S
O930        H941   0.992       .  S
C932        C933   1.402       .  A
C932        O937   1.372       .  S
C933        C934   1.407   1_565  A
C933        H938   1.083       .  S
C934        C935   1.411       .  A
C935        C936   1.399       .  A
C935        O939   1.372       .  S
C936        H940   1.084       .  S
O937        H942   0.992       .  S
O939        H943   0.992   1_545  S
C945        C946   1.405       .  A
C945        C950   1.403       .  A
C945        H955   1.083       .  S
C946        C951   1.492       .  S
C946        C947   1.411       .  A
C947        C948   1.405       .  A
C947        O952   1.371       .  S
C948        C949   1.404       .  A
C948        H953   1.083       .  S
C949        C950   1.408       .  A
C950        O954   1.371       .  S
C951        C956   1.408       .  A
C951        C960   1.405       .  A
O952        H968   0.992       .  S
O954        H965   0.992       .  S
C956        C957   1.404       .  A
C956        O961   1.371       .  S
C957        C958   1.409       .  A
C957        H962   1.083       .  S
C958        C959   1.413       .  A
C959        C960   1.406       .  A
C959        O963   1.371       .  S
C960        H964   1.084       .  S
O961        H966   0.992       .  S
O963        H967   0.992       .  S
C969        C970   1.403       .  A
C969        C974   1.399       .  A
C969        H979   1.084       .  S
C970        C975   1.484       .  S
C970        C971   1.409       .  A
C971        C972   1.404       .  A
C971        O976   1.371       .  S
C972        C973   1.404       .  A
C972        H977   1.083       .  S
C973        C974   1.411       .  A
C974        O978   1.372       .  S
C975        C980   1.406       .  A
C975        C984   1.404       .  A
O976        H992   0.992       .  S
O978        H989   0.991       .  S
C980        C981   1.401       .  A
C980        O985   1.372       .  S
C981        C982   1.407       .  A
C981        H986   1.083       .  S
C982        C983   1.413       .  A
C983        C984   1.402       .  A
C983        O987   1.372       .  S
C984        H988   1.084       .  S
O985        H990   0.992       .  S
O987        H991   0.992       .  S
C993        C994   1.402       .  A
C993        C998   1.404       .  A
C993       H1003   1.083       .  S
C994        C999   1.489       .  S
C994        C995   1.410       .  A
C995        C996   1.402       .  A
C995       O1000   1.372       .  S
C996        C997   1.406       .  A
C996       H1001   1.083       .  S
C997        C998   1.415       .  A
C998       O1002   1.371       .  S
C999       C1004   1.411       .  A
C999       C1008   1.404       .  A
O1000      H1016   0.992       .  S
O1002      H1013   0.992       .  S
C1004      C1005   1.405       .  A
C1004      O1009   1.371       .  S
C1005      C1006   1.404       .  A
C1005      H1010   1.083       .  S
C1006      C1007   1.410   1_545  A
C1007      C1008   1.400   1_565  A
C1007      O1011   1.372       .  S
C1008      H1012   1.084   1_545  S
O1009      H1014   0.992       .  S
O1011      H1015   0.992       .  S
C1017      C1018   1.405       .  A
C1017      C1022   1.401       .  A
C1017      H1027   1.083       .  S
C1018      C1023   1.487       .  S
C1018      C1019   1.408       .  A
C1019      C1020   1.401       .  A
C1019      O1024   1.372       .  S
C1020      C1021   1.409       .  A
C1020      H1025   1.083       .  S
C1021      C1022   1.411       .  A
C1022      O1026   1.371       .  S
C1023      C1028   1.410       .  A
C1023      C1032   1.406       .  A
O1024      H1040   0.992       .  S
O1026      H1037   0.992       .  S
C1028      C1029   1.400       .  A
C1028      O1033   1.371       .  S
C1029      C1030   1.401       .  A
C1029      H1034   1.084   1_545  S
C1030      C1031   1.405       .  A
C1031      C1032   1.400       .  A
C1031      O1035   1.371       .  S
C1032      H1036   1.083       .  S
O1033      H1038   0.992       .  S
O1035      H1039   0.992       .  S
C1041      C1042   1.405       .  A
C1041      C1046   1.403       .  A
C1041      H1051   1.083       .  S
C1042      C1047   1.491       .  S
C1042      C1043   1.411       .  A
C1043      C1044   1.400       .  A
C1043      O1048   1.372       .  S
C1044      C1045   1.405       .  A
C1044      H1049   1.083       .  S
C1045      C1046   1.413       .  A
C1046      O1050   1.371       .  S
C1047      C1052   1.412       .  A
C1047      C1056   1.407       .  A
O1048      H1064   0.992       .  S
O1050      H1061   0.992       .  S
C1052      C1053   1.401       .  A
C1052      O1057   1.372       .  S
C1053      C1054   1.402       .  A
C1053      H1058   1.084       .  S
C1054      C1055   1.407       .  A
C1055      C1056   1.403       .  A
C1055      O1059   1.371       .  S
C1056      H1060   1.083       .  S
O1057      H1062   0.992       .  S
O1059      H1063   0.992       .  S
C1065      C1066   1.405       .  A
C1065      C1070   1.402       .  A
C1065      H1075   1.083       .  S
C1066      C1071   1.487       .  S
C1066      C1067   1.407       .  A
C1067      C1068   1.402       .  A
C1067      O1072   1.372       .  S
C1068      C1069   1.409       .  A
C1068      H1073   1.083       .  S
C1069      C1070   1.411       .  A
C1070      O1074   1.371       .  S
C1071      C1076   1.409       .  A
C1071      C1080   1.406       .  A
O1072      H1088   0.992       .  S
O1074      H1085   0.992       .  S
C1076      C1077   1.403       .  A
C1076      O1081   1.372       .  S
C1077      C1078   1.403       .  A
C1077      H1082   1.084       .  S
C1078      C1079   1.406       .  A
C1079      C1080   1.401       .  A
C1079      O1083   1.371       .  S
C1080      H1084   1.083       .  S
O1081      H1086   0.992       .  S
O1083      H1087   0.992       .  S
C1089      C1090   1.403       .  A
C1089      C1094   1.397       .  A
C1089      H1099   1.084       .  S
C1090      C1095   1.482       .  S
C1090      C1091   1.408       .  A
C1091      C1092   1.401       .  A
C1091      O1096   1.372       .  S
C1092      C1093   1.408       .  A
C1092      H1097   1.083       .  S
C1093      C1094   1.411       .  A
C1094      O1098   1.372       .  S
C1095      C1100   1.411       .  A
C1095      C1104   1.404       .  A
O1096      H1112   0.992       .  S
O1098      H1109   0.992       .  S
C1100      C1101   1.400       .  A
C1100      O1105   1.371       .  S
C1101      C1102   1.400       .  A
C1101      H1106   1.084       .  S
C1102      C1103   1.406       .  A
C1103      C1104   1.396       .  A
C1103      O1107   1.371       .  S
C1104      H1108   1.083       .  S
O1105      H1110   0.992       .  S
O1107      H1111   0.992       .  S
C1113      C1114   1.405       .  A
C1113      C1118   1.399       .  A
C1113      H1123   1.083       .  S
C1114      C1119   1.482       .  S
C1114      C1115   1.406       .  A
C1115      C1116   1.400       .  A
C1115      O1120   1.371       .  S
C1116      C1117   1.407       .  A
C1116      H1121   1.083       .  S
C1117      C1118   1.409       .  A
C1118      O1122   1.371       .  S
C1119      C1124   1.409       .  A
C1119      C1128   1.405       .  A
O1120      H1136   0.992       .  S
O1122      H1133   0.992       .  S
C1124      C1125   1.400       .  A
C1124      O1129   1.372       .  S
C1125      C1126   1.401       .  A
C1125      H1130   1.084       .  S
C1126      C1127   1.406       .  A
C1127      C1128   1.400       .  A
C1127      O1131   1.372       .  S
C1128      H1132   1.083       .  S
O1129      H1134   0.992       .  S
O1131      H1135   0.992       .  S
C1137      C1138   1.405       .  A
C1137      C1142   1.400       .  A
C1137      H1147   1.083       .  S
C1138      C1143   1.485       .  S
C1138      C1139   1.410       .  A
C1139      C1140   1.400       .  A
C1139      O1144   1.372       .  S
C1140      C1141   1.402       .  A
C1140      H1145   1.084       .  S
C1141      C1142   1.407       .  A
C1142      O1146   1.372       .  S
C1143      C1148   1.410       .  A
C1143      C1152   1.403       .  A
O1144      H1160   0.992       .  S
O1146      H1157   0.992       .  S
C1148      C1149   1.400       .  A
C1148      O1153   1.372       .  S
C1149      C1150   1.406       .  A
C1149      H1154   1.083       .  S
C1150      C1151   1.412       .  A
C1151      C1152   1.402       .  A
C1151      O1155   1.371       .  S
C1152      H1156   1.083       .  S
O1153      H1158   0.992       .  S
O1155      H1159   0.992       .  S
C1161      C1162   1.403       .  A
C1161      C1166   1.401       .  A
C1161      H1171   1.084       .  S
C1162      C1167   1.478       .  S
C1162      C1163   1.408       .  A
C1163      C1164   1.399       .  A
C1163      O1168   1.372       .  S
C1164      C1165   1.402       .  A
C1164      H1169   1.084       .  S
C1165      C1166   1.407       .  A
C1166      O1170   1.372       .  S
C1167      C1172   1.407       .  A
C1167      C1176   1.400       .  A
O1168      H1184   0.992       .  S
O1170      H1181   0.992       .  S
C1172      C1173   1.399       .  A
C1172      O1177   1.372       .  S
C1173      C1174   1.405       .  A
C1173      H1178   1.083       .  S
C1174      C1175   1.415       .  A
C1175      C1176   1.401       .  A
C1175      O1179   1.371       .  S
C1176      H1180   1.084       .  S
O1177      H1182   0.992       .  S
O1179      H1183   0.992       .  S
C1185      C1186   1.406       .  A
C1185      C1190   1.407       .  A
C1185      H1195   1.084       .  S
C1186      C1191   1.487       .  S
C1186      C1187   1.406       .  A
C1187      C1188   1.401       .  A
C1187      O1192   1.373       .  S
C1188      C1189   1.407       .  A
C1188      H1193   1.083       .  S
C1189      C1190   1.412       .  A
C1190      O1194   1.371       .  S
C1191      C1196   1.409       .  A
C1191      C1200   1.406       .  A
O1192      H1208   0.992       .  S
O1194      H1205   0.992       .  S
C1196      C1197   1.399       .  A
C1196      O1201   1.372       .  S
C1197      C1198   1.403       .  A
C1197      H1202   1.084       .  S
C1198      C1199   1.408       .  A
C1199      C1200   1.406       .  A
C1199      O1203   1.371       .  S
C1200      H1204   1.083       .  S
O1201      H1206   0.992       .  S
O1203      H1207   0.992       .  S
C1209      C1210   1.403       .  A
C1209      C1214   1.404       .  A
C1209      H1219   1.084       .  S
C1210      C1215   1.489       .  S
C1210      C1211   1.409       .  A
C1211      C1212   1.405       .  A
C1211      O1216   1.371       .  S
C1212      C1213   1.404       .  A
C1212      H1217   1.084       .  S
C1213      C1214   1.410       .  A
C1214      O1218   1.372       .  S
C1215      C1220   1.406       .  A
C1215      C1224   1.404       .  A
O1216      H1232   0.992       .  S
O1218      H1229   0.992       .  S
C1220      C1221   1.406       .  A
C1220      O1225   1.371       .  S
C1221      C1222   1.409       .  A
C1221      H1226   1.083       .  S
C1222      C1223   1.414       .  A
C1223      C1224   1.404       .  A
C1223      O1227   1.371       .  S
C1224      H1228   1.084       .  S
O1225      H1230   0.992       .  S
O1227      H1231   0.992       .  S
C1233      C1234   1.404       .  A
C1233      C1238   1.402       .  A
C1233      H1243   1.083       .  S
C1234      C1239   1.489       .  S
C1234      C1235   1.409       .  A
C1235      C1236   1.404       .  A
C1235      O1240   1.371       .  S
C1236      C1237   1.408       .  A
C1236      H1241   1.083       .  S
C1237      C1238   1.412       .  A
C1238      O1242   1.372       .  S
C1239      C1244   1.411       .  A
C1239      C1248   1.404       .  A
O1240      H1256   0.992       .  S
O1242      H1253   0.992       .  S
C1244      C1245   1.406       .  A
C1244      O1249   1.372       .  S
C1245      C1246   1.402       .  A
C1245      H1250   1.083       .  S
C1246      C1247   1.409       .  A
C1247      C1248   1.401       .  A
C1247      O1251   1.372       .  S
C1248      H1252   1.084       .  S
O1249      H1254   0.992       .  S
O1251      H1255   0.992       .  S
C1257      C1258   1.402   1_556  A
C1257      C1262   1.399       .  A
C1257      H1267   1.084       .  S
C1258      C1263   1.482       .  S
C1258      C1259   1.407       .  A
C1259      C1260   1.403       .  A
C1259      O1264   1.371       .  S
C1260      C1261   1.408       .  A
C1260      H1265   1.083       .  S
C1261      C1262   1.413   1_554  A
C1262      O1266   1.371       .  S
C1263      C1268   1.410       .  A
C1263      C1272   1.403       .  A
O1264      H1280   0.992       .  S
O1266      H1277   0.992       .  S
C1268      C1269   1.401       .  A
C1268      O1273   1.371       .  S
C1269      C1270   1.402   1_554  A
C1269      H1274   1.084       .  S
C1270      C1271   1.408       .  A
C1271      C1272   1.399   1_556  A
C1271      O1275   1.371       .  S
C1272      H1276   1.084       .  S
O1273      H1278   0.992       .  S
O1275      H1279   0.992   1_556  S
C1281      C1282   1.402       .  A
C1281      C1286   1.402       .  A
C1281      H1291   1.084       .  S
C1282      C1287   1.484       .  S
C1282      C1283   1.410       .  A
C1283      C1284   1.400       .  A
C1283      O1288   1.373       .  S
C1284      C1285   1.404       .  A
C1284      H1289   1.083       .  S
C1285      C1286   1.414       .  A
C1286      O1290   1.371       .  S
C1287      C1292   1.410       .  A
C1287      C1296   1.404       .  A
O1288      H1304   0.992       .  S
O1290      H1301   0.992       .  S
C1292      C1293   1.399       .  A
C1292      O1297   1.371       .  S
C1293      C1294   1.401       .  A
C1293      H1298   1.084       .  S
C1294      C1295   1.407       .  A
C1295      C1296   1.400       .  A
C1295      O1299   1.372       .  S
C1296      H1300   1.084       .  S
O1297      H1302   0.992       .  S
O1299      H1303   0.992       .  S
C1305      C1306   1.406       .  A
C1305      C1310   1.401       .  A
C1305      H1315   1.083       .  S
C1306      C1311   1.481       .  S
C1306      C1307   1.408       .  A
C1307      C1308   1.397       .  A
C1307      O1312   1.372       .  S
C1308      C1309   1.402       .  A
C1308      H1313   1.084       .  S
C1309      C1310   1.405       .  A
C1310      O1314   1.371       .  S
C1311      C1316   1.406       .  A
C1311      C1320   1.403       .  A
O1312      H1328   0.992       .  S
O1314      H1325   0.992       .  S
C1316      C1317   1.402       .  A
C1316      O1321   1.372       .  S
C1317      C1318   1.408       .  A
C1317      H1322   1.083       .  S
C1318      C1319   1.412       .  A
C1319      C1320   1.398       .  A
C1319      O1323   1.372       .  S
C1320      H1324   1.084       .  S
O1321      H1326   0.992       .  S
O1323      H1327   0.992       .  S
C1329      C1330   1.408       .  A
C1329      C1334   1.404       .  A
C1329      H1339   1.083       .  S
C1330      C1335   1.497       .  S
C1330      C1331   1.412       .  A
C1331      C1332   1.401       .  A
C1331      O1336   1.372       .  S
C1332      C1333   1.405       .  A
C1332      H1337   1.084       .  S
C1333      C1334   1.409       .  A
C1334      O1338   1.371       .  S
C1335      C1340   1.412       .  A
C1335      C1344   1.407       .  A
O1336      H1352   0.992       .  S
O1338      H1349   0.992       .  S
C1340      C1341   1.401       .  A
C1340      O1345   1.372       .  S
C1341      C1342   1.406       .  A
C1341      H1346   1.083       .  S
C1342      C1343   1.412       .  A
C1343      C1344   1.404       .  A
C1343      O1347   1.371       .  S
C1344      H1348   1.083       .  S
O1345      H1350   0.992       .  S
O1347      H1351   0.992       .  S
C1353      C1354   1.406       .  A
C1353      C1358   1.402       .  A
C1353      H1363   1.084       .  S
C1354      C1359   1.485       .  S
C1354      C1355   1.408       .  A
C1355      C1356   1.400   1_556  A
C1355      O1360   1.372       .  S
C1356      C1357   1.404   1_554  A
C1356      H1361   1.084       .  S
C1357      C1358   1.408       .  A
C1358      O1362   1.372       .  S
C1359      C1364   1.407   1_556  A
C1359      C1368   1.404       .  A
O1360      H1376   0.992   1_556  S
O1362      H1373   0.992   1_556  S
C1364      C1365   1.397       .  A
C1364      O1369   1.372       .  S
C1365      C1366   1.406   1_554  A
C1365      H1370   1.083       .  S
C1366      C1367   1.414       .  A
C1367      C1368   1.405       .  A
C1367      O1371   1.371       .  S
C1368      H1372   1.083       .  S
O1369      H1374   0.992       .  S
O1371      H1375   0.992       .  S
C1377      C1378   1.407       .  A
C1377      C1382   1.403       .  A
C1377      H1387   1.083       .  S
C1378      C1383   1.492       .  S
C1378      C1379   1.411       .  A
C1379      C1380   1.401       .  A
C1379      O1384   1.372       .  S
C1380      C1381   1.402       .  A
C1380      H1385   1.084       .  S
C1381      C1382   1.406       .  A
C1382      O1386   1.372       .  S
C1383      C1388   1.411       .  A
C1383      C1392   1.405       .  A
O1384      H1400   0.992       .  S
O1386      H1397   0.992       .  S
C1388      C1389   1.401       .  A
C1388      O1393   1.372       .  S
C1389      C1390   1.406       .  A
C1389      H1394   1.083       .  S
C1390      C1391   1.413       .  A
C1391      C1392   1.404       .  A
C1391      O1395   1.371       .  S
C1392      H1396   1.083       .  S
O1393      H1398   0.992       .  S
O1395      H1399   0.992       .  S
C1401      C1402   1.404       .  A
C1401      C1406   1.402       .  A
C1401      H1411   1.083       .  S
C1402      C1407   1.489       .  S
C1402      C1403   1.409       .  A
C1403      C1404   1.403       .  A
C1403      O1408   1.371       .  S
C1404      C1405   1.407       .  A
C1404      H1409   1.083       .  S
C1405      C1406   1.414       .  A
C1406      O1410   1.371       .  S
C1407      C1412   1.412       .  A
C1407      C1416   1.404       .  A
O1408      H1424   0.992       .  S
O1410      H1421   0.992       .  S
C1412      C1413   1.405       .  A
C1412      O1417   1.372       .  S
C1413      C1414   1.403       .  A
C1413      H1418   1.084       .  S
C1414      C1415   1.408       .  A
C1415      C1416   1.400       .  A
C1415      O1419   1.371       .  S
C1416      H1420   1.083       .  S
O1417      H1422   0.992       .  S
O1419      H1423   0.992       .  S
C1425      C1426   1.402       .  A
C1425      C1430   1.395       .  A
C1425      H1435   1.084       .  S
C1426      C1431   1.481       .  S
C1426      C1427   1.407       .  A
C1427      C1428   1.404       .  A
C1427      O1432   1.371       .  S
C1428      C1429   1.410       .  A
C1428      H1433   1.083       .  S
C1429      C1430   1.411       .  A
C1430      O1434   1.371       .  S
C1431      C1436   1.409       .  A
C1431      C1440   1.405       .  A
O1432      H1448   0.992       .  S
O1434      H1445   0.992       .  S
C1436      C1437   1.399       .  A
C1436      O1441   1.373       .  S
C1437      C1438   1.400       .  A
C1437      H1442   1.084       .  S
C1438      C1439   1.406       .  A
C1439      C1440   1.402       .  A
C1439      O1443   1.372       .  S
C1440      H1444   1.083       .  S
O1441      H1446   0.992       .  S
O1443      H1447   0.992       .  S
C1449      C1450   1.402       .  A
C1449      C1454   1.402       .  A
C1449      H1459   1.083       .  S
C1450      C1455   1.482       .  S
C1450      C1451   1.408       .  A
C1451      C1452   1.398       .  A
C1451      O1456   1.372       .  S
C1452      C1453   1.405       .  A
C1452      H1457   1.083       .  S
C1453      C1454   1.414       .  A
C1454      O1458   1.371       .  S
C1455      C1460   1.408       .  A
C1455      C1464   1.404       .  A
O1456      H1472   0.992       .  S
O1458      H1469   0.992       .  S
C1460      C1461   1.401       .  A
C1460      O1465   1.371       .  S
C1461      C1462   1.402       .  A
C1461      H1466   1.084       .  S
C1462      C1463   1.407       .  A
C1463      C1464   1.400       .  A
C1463      O1467   1.371       .  S
C1464      H1468   1.084       .  S
O1465      H1470   0.992       .  S
O1467      H1471   0.992       .  S
C1473      C1474   1.404       .  A
C1473      C1478   1.400       .  A
C1473      H1483   1.083       .  S
C1474      C1479   1.479       .  S
C1474      C1475   1.405       .  A
C1475      C1476   1.398       .  A
C1475      O1480   1.371       .  S
C1476      C1477   1.407       .  A
C1476      H1481   1.083       .  S
C1477      C1478   1.411       .  A
C1478      O1482   1.372       .  S
C1479      C1484   1.408       .  A
C1479      C1488   1.404       .  A
O1480      H1496   0.992       .  S
O1482      H1493   0.992       .  S
C1484      C1485   1.401       .  A
C1484      O1489   1.372       .  S
C1485      C1486   1.402       .  A
C1485      H1490   1.084       .  S
C1486      C1487   1.405       .  A
C1487      C1488   1.397       .  A
C1487      O1491   1.372       .  S
C1488      H1492   1.084       .  S
O1489      H1494   0.992       .  S
O1491      H1495   0.992       .  S
C1497      C1498   1.402       .  A
C1497      C1502   1.402       .  A
C1497      H1507   1.083       .  S
C1498      C1503   1.483       .  S
C1498      C1499   1.408       .  A
C1499      C1500   1.399       .  A
C1499      O1504   1.372       .  S
C1500      C1501   1.405       .  A
C1500      H1505   1.083       .  S
C1501      C1502   1.414       .  A
C1502      O1506   1.371       .  S
C1503      C1508   1.409       .  A
C1503      C1512   1.404       .  A
O1504      H1520   0.992       .  S
O1506      H1517   0.992       .  S
C1508      C1509   1.400       .  A
C1508      O1513   1.372       .  S
C1509      C1510   1.402       .  A
C1509      H1514   1.084       .  S
C1510      C1511   1.407       .  A
C1511      C1512   1.401       .  A
C1511      O1515   1.371       .  S
C1512      H1516   1.084       .  S
O1513      H1518   0.992       .  S
O1515      H1519   0.992   1_655  S
C1521      C1522   1.406       .  A
C1521      C1526   1.402       .  A
C1521      H1531   1.083       .  S
C1522      C1527   1.485       .  S
C1522      C1523   1.408       .  A
C1523      C1524   1.401       .  A
C1523      O1528   1.372   1_545  S
C1524      C1525   1.403       .  A
C1524      H1529   1.084   1_545  S
C1525      C1526   1.406       .  A
C1526      O1530   1.372       .  S
C1527      C1532   1.407   1_554  A
C1527      C1536   1.404       .  A
O1528      H1544   0.992   1_554  S
O1530      H1541   0.992   1_554  S
C1532      C1533   1.398       .  A
C1532      O1537   1.372       .  S
C1533      C1534   1.405   1_556  A
C1533      H1538   1.083       .  S
C1534      C1535   1.415       .  A
C1535      C1536   1.405       .  A
C1535      O1539   1.371       .  S
C1536      H1540   1.083       .  S
O1537      H1542   0.992       .  S
O1539      H1543   0.992       .  S
C1545      C1546   1.404       .  A
C1545      C1550   1.399   1_546  A
C1545      H1555   1.083   1_546  S
C1546      C1551   1.487       .  S
C1546      C1547   1.412       .  A
C1547      C1548   1.400       .  A
C1547      O1552   1.371       .  S
C1548      C1549   1.401   1_556  A
C1548      H1553   1.084       .  S
C1549      C1550   1.408   1_545  A
C1550      O1554   1.371       .  S
C1551      C1556   1.410       .  A
C1551      C1560   1.403   1_556  A
O1552      H1568   0.992       .  S
O1554      H1565   0.992   1_554  S
C1556      C1557   1.402       .  A
C1556      O1561   1.371       .  S
C1557      C1558   1.406       .  A
C1557      H1562   1.083       .  S
C1558      C1559   1.413   1_556  A
C1559      C1560   1.398       .  A
C1559      O1563   1.372       .  S
C1560      H1564   1.083       .  S
O1561      H1566   0.992       .  S
O1563      H1567   0.992       .  S
C1569      C1570   1.406       .  A
C1569      C1574   1.401       .  A
C1569      H1579   1.083       .  S
C1570      C1575   1.488       .  S
C1570      C1571   1.410       .  A
C1571      C1572   1.402       .  A
C1571      O1576   1.371       .  S
C1572      C1573   1.404       .  A
C1572      H1577   1.084       .  S
C1573      C1574   1.406       .  A
C1574      O1578   1.372       .  S
C1575      C1580   1.407       .  A
C1575      C1584   1.405       .  A
O1576      H1592   0.992       .  S
O1578      H1589   0.992       .  S
C1580      C1581   1.402       .  A
C1580      O1585   1.372       .  S
C1581      C1582   1.408       .  A
C1581      H1586   1.083       .  S
C1582      C1583   1.412       .  A
C1583      C1584   1.403       .  A
C1583      O1587   1.372       .  S
C1584      H1588   1.084       .  S
O1585      H1590   0.992       .  S
O1587      H1591   0.992       .  S
C1593      C1594   1.403       .  A
C1593      C1598   1.404       .  A
C1593      H1603   1.084       .  S
C1594      C1599   1.489       .  S
C1594      C1595   1.410       .  A
C1595      C1596   1.403       .  A
C1595      O1600   1.372       .  S
C1596      C1597   1.407       .  A
C1596      H1601   1.083       .  S
C1597      C1598   1.415       .  A
C1598      O1602   1.371       .  S
C1599      C1604   1.411       .  A
C1599      C1608   1.404       .  A
O1600      H1616   0.992       .  S
O1602      H1613   0.992       .  S
C1604      C1605   1.404       .  A
C1604      O1609   1.372       .  S
C1605      C1606   1.403       .  A
C1605      H1610   1.084       .  S
C1606      C1607   1.409       .  A
C1607      C1608   1.402       .  A
C1607      O1611   1.371       .  S
C1608      H1612   1.083       .  S
O1609      H1614   0.992       .  S
O1611      H1615   0.992       .  S
C1617      C1618   1.407       .  A
C1617      C1622   1.406       .  A
C1617      H1627   1.083       .  S
C1618      C1623   1.491       .  S
C1618      C1619   1.409       .  A
C1619      C1620   1.399       .  A
C1619      O1624   1.371       .  S
C1620      C1621   1.404       .  A
C1620      H1625   1.084       .  S
C1621      C1622   1.408       .  A
C1622      O1626   1.371       .  S
C1623      C1628   1.408       .  A
C1623      C1632   1.405       .  A
O1624      H1640   0.992       .  S
O1626      H1637   0.992       .  S
C1628      C1629   1.404       .  A
C1628      O1633   1.371       .  S
C1629      C1630   1.409       .  A
C1629      H1634   1.083       .  S
C1630      C1631   1.412       .  A
C1631      C1632   1.402       .  A
C1631      O1635   1.372       .  S
C1632      H1636   1.084       .  S
O1633      H1638   0.992       .  S
O1635      H1639   0.992       .  S
C1641      C1642   1.404       .  A
C1641      C1646   1.404       .  A
C1641      H1651   1.083       .  S
C1642      C1647   1.486       .  S
C1642      C1643   1.409       .  A
C1643      C1644   1.400       .  A
C1643      O1648   1.372       .  S
C1644      C1645   1.406       .  A
C1644      H1649   1.083       .  S
C1645      C1646   1.413       .  A
C1646      O1650   1.371       .  S
C1647      C1652   1.409       .  A
C1647      C1656   1.406       .  A
O1648      H1664   0.992       .  S
O1650      H1661   0.992       .  S
C1652      C1653   1.400       .  A
C1652      O1657   1.372       .  S
C1653      C1654   1.405       .  A
C1653      H1658   1.084       .  S
C1654      C1655   1.407       .  A
C1655      C1656   1.403       .  A
C1655      O1659   1.372       .  S
C1656      H1660   1.083       .  S
O1657      H1662   0.992       .  S
O1659      H1663   0.992       .  S
C1665      C1666   1.403       .  A
C1665      C1670   1.402       .  A
C1665      H1675   1.083       .  S
C1666      C1671   1.487       .  S
C1666      C1667   1.411       .  A
C1667      C1668   1.400       .  A
C1667      O1672   1.372       .  S
C1668      C1669   1.405       .  A
C1668      H1673   1.083       .  S
C1669      C1670   1.414       .  A
C1670      O1674   1.371       .  S
C1671      C1676   1.410       .  A
C1671      C1680   1.405       .  A
O1672      H1688   0.992       .  S
O1674      H1685   0.992       .  S
C1676      C1677   1.402       .  A
C1676      O1681   1.372       .  S
C1677      C1678   1.402       .  A
C1677      H1682   1.084       .  S
C1678      C1679   1.406       .  A
C1679      C1680   1.400       .  A
C1679      O1683   1.371       .  S
C1680      H1684   1.083       .  S
O1681      H1686   0.992       .  S
O1683      H1687   0.992       .  S
C1689      C1690   1.404       .  A
C1689      C1694   1.401       .  A
C1689      H1699   1.084       .  S
C1690      C1695   1.480       .  S
C1690      C1691   1.407       .  A
C1691      C1692   1.400       .  A
C1691      O1696   1.372       .  S
C1692      C1693   1.403       .  A
C1692      H1697   1.084       .  S
C1693      C1694   1.406       .  A
C1694      O1698   1.371       .  S
C1695      C1700   1.406       .  A
C1695      C1704   1.402       .  A
O1696      H1712   0.992       .  S
O1698      H1709   0.992       .  S
C1700      C1701   1.397       .  A
C1700      O1705   1.372       .  S
C1701      C1702   1.405       .  A
C1701      H1706   1.083       .  S
C1702      C1703   1.415       .  A
C1703      C1704   1.405       .  A
C1703      O1707   1.371       .  S
C1704      H1708   1.084       .  S
O1705      H1710   0.992       .  S
O1707      H1711   0.992       .  S
C1713      C1714   1.404       .  A
C1713      C1718   1.403       .  A
C1713      H1723   1.083       .  S
C1714      C1719   1.495       .  S
C1714      C1715   1.412       .  A
C1715      C1716   1.404       .  A
C1715      O1720   1.372       .  S
C1716      C1717   1.406       .  A
C1716      H1721   1.083       .  S
C1717      C1718   1.414       .  A
C1718      O1722   1.371       .  S
C1719      C1724   1.413       .  A
C1719      C1728   1.406       .  A
O1720      H1736   0.992       .  S
O1722      H1733   0.992       .  S
C1724      C1725   1.403       .  A
C1724      O1729   1.372       .  S
C1725      C1726   1.402       .  A
C1725      H1730   1.084       .  S
C1726      C1727   1.409       .  A
C1727      C1728   1.404       .  A
C1727      O1731   1.372       .  S
C1728      H1732   1.083       .  S
O1729      H1734   0.992       .  S
O1731      H1735   0.992       .  S
C1737      C1738   1.403       .  A
C1737      C1742   1.398       .  A
C1737      H1747   1.083       .  S
C1738      C1743   1.492       .  S
C1738      C1739   1.411       .  A
C1739      C1740   1.407       .  A
C1739      O1744   1.371       .  S
C1740      C1741   1.408       .  A
C1740      H1745   1.083       .  S
C1741      C1742   1.412       .  A
C1742      O1746   1.372       .  S
C1743      C1748   1.412       .  A
C1743      C1752   1.405       .  A
O1744      H1760   0.992       .  S
O1746      H1757   0.992       .  S
C1748      C1749   1.404       .  A
C1748      O1753   1.373       .  S
C1749      C1750   1.401       .  A
C1749      H1754   1.084       .  S
C1750      C1751   1.409       .  A
C1751      C1752   1.402       .  A
C1751      O1755   1.371       .  S
C1752      H1756   1.083       .  S
O1753      H1758   0.992       .  S
O1755      H1759   0.992       .  S
C1761      C1762   1.404       .  A
C1761      C1766   1.401       .  A
C1761      H1771   1.083       .  S
C1762      C1767   1.479       .  S
C1762      C1763   1.407       .  A
C1763      C1764   1.397       .  A
C1763      O1768   1.371       .  S
C1764      C1765   1.402       .  A
C1764      H1769   1.084       .  S
C1765      C1766   1.406       .  A
C1766      O1770   1.371       .  S
C1767      C1772   1.405       .  A
C1767      C1776   1.403       .  A
O1768      H1784   0.992       .  S
O1770      H1781   0.992       .  S
C1772      C1773   1.402       .  A
C1772      O1777   1.371       .  S
C1773      C1774   1.408       .  A
C1773      H1778   1.083       .  S
C1774      C1775   1.412       .  A
C1775      C1776   1.398       .  A
C1775      O1779   1.372       .  S
C1776      H1780   1.084       .  S
O1777      H1782   0.992       .  S
O1779      H1783   0.992       .  S
C1785      C1786   1.405       .  A
C1785      C1790   1.400       .  A
C1785      H1795   1.083       .  S
C1786      C1791   1.481       .  S
C1786      C1787   1.408       .  A
C1787      C1788   1.399       .  A
C1787      O1792   1.372       .  S
C1788      C1789   1.403       .  A
C1788      H1793   1.084       .  S
C1789      C1790   1.405       .  A
C1790      O1794   1.371       .  S
C1791      C1796   1.408       .  A
C1791      C1800   1.403       .  A
O1792      H1808   0.992       .  S
O1794      H1805   0.991       .  S
C1796      C1797   1.397       .  A
C1796      O1801   1.372       .  S
C1797      C1798   1.404       .  A
C1797      H1802   1.083       .  S
C1798      C1799   1.413       .  A
C1799      C1800   1.402       .  A
C1799      O1803   1.371       .  S
C1800      H1804   1.084       .  S
O1801      H1806   0.992       .  S
O1803      H1807   0.992       .  S
C1809      C1810   1.405       .  A
C1809      C1814   1.399       .  A
C1809      H1819   1.083       .  S
C1810      C1815   1.485       .  S
C1810      C1811   1.410       .  A
C1811      C1812   1.402       .  A
C1811      O1816   1.371       .  S
C1812      C1813   1.403       .  A
C1812      H1817   1.084       .  S
C1813      C1814   1.405       .  A
C1814      O1818   1.371       .  S
C1815      C1820   1.407       .  A
C1815      C1824   1.405   1_556  A
O1816      H1832   0.992       .  S
O1818      H1829   0.992       .  S
C1820      C1821   1.400       .  A
C1820      O1825   1.372       .  S
C1821      C1822   1.408       .  A
C1821      H1826   1.083       .  S
C1822      C1823   1.412   1_556  A
C1823      C1824   1.402       .  A
C1823      O1827   1.371       .  S
C1824      H1828   1.084       .  S
O1825      H1830   0.992       .  S
O1827      H1831   0.992       .  S
C1833      C1834   1.402   1_556  A
C1833      C1838   1.402       .  A
C1833      H1843   1.084       .  S
C1834      C1839   1.483       .  S
C1834      C1835   1.405       .  A
C1835      C1836   1.404       .  A
C1835      O1840   1.371       .  S
C1836      C1837   1.409   1_554  A
C1836      H1841   1.083       .  S
C1837      C1838   1.414       .  A
C1838      O1842   1.372       .  S
C1839      C1844   1.408       .  A
C1839      C1848   1.404   1_554  A
O1840      H1856   0.992       .  S
O1842      H1853   0.992       .  S
C1844      C1845   1.402       .  A
C1844      O1849   1.371       .  S
C1845      C1846   1.403   1_554  A
C1845      H1850   1.084       .  S
C1846      C1847   1.407       .  A
C1847      C1848   1.401       .  A
C1847      O1851   1.371       .  S
C1848      H1852   1.084       .  S
O1849      H1854   0.992   1_554  S
O1851      H1855   0.992   1_556  S
C1857      C1858   1.404       .  A
C1857      C1862   1.401       .  A
C1857      H1867   1.083       .  S
C1858      C1863   1.487       .  S
C1858      C1859   1.412       .  A
C1859      C1860   1.401       .  A
C1859      O1864   1.371       .  S
C1860      C1861   1.401       .  A
C1860      H1865   1.084       .  S
C1861      C1862   1.407       .  A
C1862      O1866   1.371       .  S
C1863      C1868   1.409       .  A
C1863      C1872   1.402       .  A
O1864      H1880   0.992       .  S
O1866      H1877   0.992       .  S
C1868      C1869   1.407       .  A
C1868      O1873   1.372       .  S
C1869      C1870   1.409       .  A
C1869      H1874   1.083       .  S
C1870      C1871   1.412       .  A
C1871      C1872   1.397       .  A
C1871      O1875   1.371       .  S
C1872      H1876   1.084       .  S
O1873      H1878   0.992       .  S
O1875      H1879   0.992       .  S
C1881      C1882   1.406       .  A
C1881      C1886   1.403       .  A
C1881      H1891   1.083       .  S
C1882      C1887   1.491       .  S
C1882      C1883   1.411       .  A
C1883      C1884   1.402       .  A
C1883      O1888   1.371       .  S
C1884      C1885   1.403       .  A
C1884      H1889   1.084       .  S
C1885      C1886   1.407       .  A
C1886      O1890   1.371       .  S
C1887      C1892   1.409       .  A
C1887      C1896   1.405       .  A
O1888      H1904   0.992       .  S
O1890      H1901   0.991       .  S
C1892      C1893   1.403       .  A
C1892      O1897   1.371       .  S
C1893      C1894   1.408       .  A
C1893      H1898   1.083       .  S
C1894      C1895   1.413       .  A
C1895      C1896   1.403       .  A
C1895      O1899   1.371       .  S
C1896      H1900   1.084       .  S
O1897      H1902   0.992       .  S
O1899      H1903   0.992       .  S
C1905      C1906   1.404       .  A
C1905      C1910   1.399       .  A
C1905      H1915   1.083       .  S
C1906      C1911   1.482       .  S
C1906      C1907   1.409       .  A
C1907      C1908   1.400       .  A
C1907      O1912   1.371       .  S
C1908      C1909   1.402       .  A
C1908      H1913   1.084       .  S
C1909      C1910   1.405       .  A
C1910      O1914   1.372       .  S
C1911      C1916   1.406       .  A
C1911      C1920   1.403       .  A
O1912      H1928   0.992       .  S
O1914      H1925   0.992       .  S
C1916      C1917   1.402       .  A
C1916      O1921   1.372       .  S
C1917      C1918   1.408       .  A
C1917      H1922   1.083       .  S
C1918      C1919   1.411       .  A
C1919      C1920   1.399       .  A
C1919      O1923   1.371       .  S
C1920      H1924   1.084       .  S
O1921      H1926   0.992       .  S
O1923      H1927   0.992       .  S
C1929      C1930   1.404       .  A
C1929      C1934   1.405       .  A
C1929      H1939   1.083       .  S
C1930      C1935   1.486       .  S
C1930      C1931   1.409       .  A
C1931      C1932   1.399       .  A
C1931      O1936   1.372       .  S
C1932      C1933   1.406       .  A
C1932      H1937   1.083       .  S
C1933      C1934   1.413       .  A
C1934      O1938   1.371       .  S
C1935      C1940   1.410       .  A
C1935      C1944   1.406       .  A
O1936      H1952   0.992       .  S
O1938      H1949   0.992       .  S
C1940      C1941   1.402       .  A
C1940      O1945   1.372       .  S
C1941      C1942   1.403       .  A
C1941      H1946   1.084       .  S
C1942      C1943   1.406       .  A
C1943      C1944   1.401       .  A
C1943      O1947   1.372       .  S
C1944      H1948   1.084       .  S
O1945      H1950   0.992       .  S
O1947      H1951   0.992       .  S
C1953      C1954   1.406       .  A
C1953      C1958   1.402       .  A
C1953      H1963   1.083       .  S
C1954      C1959   1.492       .  S
C1954      C1955   1.413       .  A
C1955      C1956   1.402       .  A
C1955      O1960   1.371       .  S
C1956      C1957   1.401       .  A
C1956      H1961   1.084       .  S
C1957      C1958   1.408       .  A
C1958      O1962   1.371       .  S
C1959      C1964   1.412       .  A
C1959      C1968   1.404       .  A
O1960      H1976   0.992       .  S
O1962      H1973   0.992       .  S
C1964      C1965   1.403       .  A
C1964      O1969   1.372       .  S
C1965      C1966   1.406       .  A
C1965      H1970   1.083       .  S
C1966      C1967   1.414       .  A
C1967      C1968   1.403       .  A
C1967      O1971   1.371       .  S
C1968      H1972   1.083       .  S
O1969      H1974   0.992       .  S
O1971      H1975   0.992       .  S
C1977      C1978   1.406       .  A
C1977      C1982   1.400       .  A
C1977      H1987   1.083       .  S
C1978      C1983   1.485       .  S
C1978      C1979   1.410       .  A
C1979      C1980   1.400       .  A
C1979      O1984   1.372       .  S
C1980      C1981   1.401       .  A
C1980      H1985   1.084       .  S
C1981      C1982   1.406       .  A
C1982      O1986   1.371       .  S
C1983      C1988   1.409       .  A
C1983      C1992   1.404       .  A
O1984      H2000   0.992       .  S
O1986      H1997   0.992       .  S
C1988      C1989   1.397       .  A
C1988      O1993   1.372       .  S
C1989      C1990   1.403       .  A
C1989      H1994   1.084       .  S
C1990      C1991   1.413       .  A
C1991      C1992   1.403       .  A
C1991      O1995   1.372       .  S
C1992      H1996   1.083       .  S
O1993      H1998   0.992       .  S
O1995      H1999   0.992       .  S
C2001      C2002   1.404       .  A
C2001      C2006   1.401       .  A
C2001      H2011   1.083       .  S
C2002      C2007   1.492       .  S
C2002      C2003   1.411       .  A
C2003      C2004   1.404       .  A
C2003      O2008   1.371       .  S
C2004      C2005   1.407       .  A
C2004      H2009   1.083       .  S
C2005      C2006   1.413       .  A
C2006      O2010   1.371       .  S
C2007      C2012   1.414       .  A
C2007      C2016   1.405       .  A
O2008      H2024   0.992       .  S
O2010      H2021   0.992       .  S
C2012      C2013   1.404       .  A
C2012      O2017   1.371       .  S
C2013      C2014   1.403       .  A
C2013      H2018   1.084       .  S
C2014      C2015   1.409       .  A
C2015      C2016   1.400       .  A
C2015      O2019   1.371       .  S
C2016      H2020   1.083       .  S
O2017      H2022   0.992       .  S
O2019      H2023   0.992   1_565  S
C2025      C2026   1.404       .  A
C2025      C2030   1.399       .  A
C2025      H2035   1.083       .  S
C2026      C2031   1.492       .  S
C2026      C2027   1.411       .  A
C2027      C2028   1.405       .  A
C2027      O2032   1.372       .  S
C2028      C2029   1.407       .  A
C2028      H2033   1.083       .  S
C2029      C2030   1.413       .  A
C2030      O2034   1.371       .  S
C2031      C2036   1.414       .  A
C2031      C2040   1.404       .  A
O2032      H2048   0.992       .  S
O2034      H2045   0.992       .  S
C2036      C2037   1.403       .  A
C2036      O2041   1.371       .  S
C2037      C2038   1.403       .  A
C2037      H2042   1.084       .  S
C2038      C2039   1.409       .  A
C2039      C2040   1.398       .  A
C2039      O2043   1.372       .  S
C2040      H2044   1.083       .  S
O2041      H2046   0.992       .  S
O2043      H2047   0.992   1_565  S
C2049      C2050   1.403       .  A
C2049      C2054   1.400       .  A
C2049      H2059   1.084       .  S
C2050      C2055   1.484       .  S
C2050      C2051   1.407       .  A
C2051      C2052   1.402       .  A
C2051      O2056   1.371       .  S
C2052      C2053   1.408       .  A
C2052      H2057   1.083       .  S
C2053      C2054   1.413       .  A
C2054      O2058   1.372       .  S
C2055      C2060   1.409       .  A
C2055      C2064   1.405       .  A
O2056      H2072   0.992       .  S
O2058      H2069   0.992       .  S
C2060      C2061   1.400       .  A
C2060      O2065   1.371       .  S
C2061      C2062   1.402       .  A
C2061      H2066   1.084       .  S
C2062      C2063   1.407       .  A
C2063      C2064   1.402       .  A
C2063      O2067   1.371       .  S
C2064      H2068   1.083       .  S
O2065      H2070   0.992       .  S
O2067      H2071   0.992       .  S
C2073      C2074   1.405       .  A
C2073      C2078   1.402       .  A
C2073      H2083   1.083       .  S
C2074      C2079   1.484       .  S
C2074      C2075   1.409       .  A
C2075      C2076   1.400       .  A
C2075      O2080   1.371       .  S
C2076      C2077   1.402       .  A
C2076      H2081   1.084       .  S
C2077      C2078   1.407       .  A
C2078      O2082   1.371       .  S
C2079      C2084   1.406       .  A
C2079      C2088   1.403       .  A
O2080      H2096   0.992       .  S
O2082      H2093   0.992       .  S
C2084      C2085   1.403       .  A
C2084      O2089   1.372       .  S
C2085      C2086   1.409       .  A
C2085      H2090   1.083       .  S
C2086      C2087   1.412       .  A
C2087      C2088   1.401       .  A
C2087      O2091   1.372       .  S
C2088      H2092   1.084       .  S
O2089      H2094   0.992       .  S
O2091      H2095   0.992       .  S
