geometry optimzed in LAMMPS
_audit_creation_date              2020-12-01 
_audit_creation_method            'lammps2cif' 
_symmetry_space_group_name_H-M    'P1' 
_symmetry_Int_Tables_number       1 
_symmetry_cell_setting            triclinic 
loop_ 
_symmetry_equiv_pos_as_xyz 
  x,y,z 
_cell_length_a                    47.76091499 
_cell_length_b                    47.938516304700194 
_cell_length_c                    23.90190537989772 
_cell_angle_alpha                 90.79153324947164 
_cell_angle_beta                  89.00122642780636 
_cell_angle_gamma                 90.05476017834754 
loop_ 
_atom_site_label 
_atom_site_type_symbol 
_atom_site_fract_x 
_atom_site_fract_y 
_atom_site_fract_z 
_atom_site_charge 
C1          C  0.10013080  0.11470011  0.23198493     0.30300
C2          C  0.13344780  0.15131753  0.28744850     0.30300
C3          C  0.12898350  0.12130744  0.20253640    -0.05900
C4          C  0.08768720  0.14416403  0.24143309    -0.06700
C5          C  0.10928236  0.10564584  0.29032767    -0.06600
C6          C  0.14625774  0.13899643  0.23273220    -0.05900
C7          C  0.10448702  0.16228164  0.27083284    -0.06700
C8          C  0.12627518  0.12397205  0.31974612    -0.06600
C9          C  0.17198013  0.13991659  0.20491834    -0.32000
N10         N  0.17024921  0.12594774  0.15536816     0.14500
C11         C  0.14404011  0.11460619  0.15339336    -0.32000
H12         H  0.13642459  0.10294280  0.11772363     0.16500
C13         C  0.09010645  0.18722805  0.27745981    -0.30900
N14         N  0.06511213  0.18530801  0.25125585     0.13300
C15         C  0.06364526  0.15906482  0.22838810    -0.30900
C16         C  0.13416197  0.10944804  0.36751406    -0.31200
N17         N  0.12199780  0.08338670  0.36734033     0.13800
H18         H  0.14827472  0.11705584  0.39921345     0.16400
C19         C  0.10685271  0.08125508  0.31999418    -0.31200
H20         H  0.09502303  0.06300544  0.30747535     0.16400
H21         H  0.04630681  0.15135554  0.20406208     0.16400
H22         H  0.19043805  0.15094199  0.21875900     0.16500
H23         H  0.09744022  0.20555695  0.29974595     0.16400
N24         N  0.49252487  0.21549196  0.24808919    -0.36300
N25         N  0.44989282  0.25883221  0.24938863    -0.56900
N26         N  0.49456543  0.30169185  0.23840298    -0.36300
N27         N  0.03712700  0.25844745  0.24745721    -0.56900
C28         C  0.46944256  0.20089903  0.26493798     0.27300
C29         C  0.01547039  0.20060524  0.26239562     0.27300
C30         C  0.47151079  0.31742902  0.25048244     0.27200
C31         C  0.01750877  0.31711449  0.25191816     0.27200
C32         C  0.43344028  0.23593688  0.24150271     0.35900
C33         C  0.43483025  0.28131665  0.23347476     0.35900
C34         C  0.05250730  0.23509722  0.23669352     0.35900
C35         C  0.05368949  0.28065242  0.23462136     0.35900
C36         C  0.47792860  0.17672183  0.29080137    -0.21600
C37         C  0.00683465  0.17667665  0.28952894    -0.21600
C38         C  0.47989032  0.34295063  0.27238226    -0.21600
C39         C  0.00875594  0.34271573  0.27352986    -0.21600
C40         C  0.40797828  0.24390861  0.22012730    -0.22700
C41         C  0.40890964  0.27248578  0.21472437    -0.22700
C42         C  0.07876404  0.24259795  0.21623590    -0.22700
C43         C  0.07954225  0.27131997  0.21517874    -0.22700
C44         C  0.44096250  0.20806163  0.25483309    -0.18000
C45         C  0.04393429  0.20728342  0.24911076    -0.18000
C46         C  0.04610417  0.30920040  0.24283237    -0.18000
C47         C  0.44317406  0.30981822  0.24016433    -0.18000
H48         H  0.46469060  0.16084532  0.30920946     0.14900
H49         H  0.02003922  0.16105076  0.30757013     0.14900
H50         H  0.46661598  0.35995138  0.28679045     0.14900
H51         H  0.02171588  0.35952481  0.28911203     0.14900
H52         H  0.39064126  0.23056412  0.20879160     0.13200
H53         H  0.39229828  0.28525106  0.19862939     0.13200
H54         H  0.09568601  0.22887686  0.20320684     0.13200
H55         H  0.09708577  0.28383016  0.20105333     0.13200
H56         H  0.49269120  0.23306957  0.22299376     0.26400
H57         H  0.49459606  0.28260424  0.21708635     0.26400
C58         C  0.35204898  0.36452928  0.27355796     0.30300
C59         C  0.38352194  0.39893676  0.20912378     0.30300
C60         C  0.33864843  0.37287993  0.21758617    -0.05900
C61         C  0.35812584  0.39334757  0.30055229    -0.06700
C62         C  0.38122071  0.35376799  0.25701970    -0.06600
C63         C  0.35489531  0.39032641  0.18468746    -0.05900
C64         C  0.37402520  0.41133188  0.26790056    -0.06700
C65         C  0.39749118  0.37097179  0.22428069    -0.06600
C66         C  0.33936925  0.39660325  0.13783503    -0.32000
N67         N  0.31423570  0.38327860  0.14088300     0.14500
C68         C  0.31318042  0.36983456  0.19068412    -0.32000
H69         H  0.29492861  0.35887192  0.20625514     0.12100
C70         C  0.37495060  0.43644901  0.29860918    -0.30900
N71         N  0.36156454  0.43366122  0.34902865     0.13300
C72         C  0.35072099  0.40740488  0.34997885    -0.30900
C73         C  0.42261861  0.35678702  0.21417292    -0.31200
N74         N  0.42169897  0.33156430  0.24042727     0.13800
H75         H  0.44005839  0.36415076  0.18889814     0.16400
C76         C  0.39645738  0.33000347  0.26735836    -0.31200
H77         H  0.38952069  0.31267494  0.29265419     0.16400
H78         H  0.33803976  0.39923497  0.38394850     0.16400
H79         H  0.34577111  0.41003188  0.10393693     0.16500
H80         H  0.38390847  0.45600293  0.28551813     0.16400
N81         N  0.12082412  0.00980081  0.42193119    -0.36300
N82         N  0.12287115  0.05185124  0.51073716    -0.56900
N83         N  0.11768203  0.00701658  0.59491231    -0.36300
N84         N  0.12102084  0.46497277  0.50617565    -0.56900
C85         C  0.12771683  0.03300810  0.39222688     0.27300
C86         C  0.12662797  0.48692565  0.38931207     0.27300
C87         C  0.12435670  0.02954294  0.62695103     0.27200
C88         C  0.12381441  0.48389146  0.62461469     0.27200
C89         C  0.11827245  0.06875780  0.46668475     0.35900
C90         C  0.11594309  0.06678036  0.55752780     0.35900
C91         C  0.11534960  0.44990709  0.45917147     0.35900
C92         C  0.11421186  0.44862080  0.55049002     0.35900
C93         C  0.13813420  0.02463328  0.34015473    -0.21600
C94         C  0.13745718  0.49577269  0.33833207    -0.21600
C95         C  0.13493833  0.02070640  0.67728385    -0.21600
C96         C  0.13473468  0.49194771  0.67572185    -0.21600
C97         C  0.10832952  0.09437117  0.48566468    -0.22700
C98         C  0.10679675  0.09309487  0.54301755    -0.22700
C99         C  0.10464347  0.42408326  0.47387332    -0.22700
C100        C  0.10392591  0.42327865  0.53142086    -0.22700
C101        C  0.12337703  0.06152573  0.40960018    -0.18000
C102        C  0.12112007  0.45837109  0.40314469    -0.18000
C103        C  0.11847819  0.45581539  0.60780360    -0.18000
C104        C  0.11969166  0.05784824  0.61334463    -0.18000
H105        H  0.14552691  0.03792625  0.30677697     0.14900
H106        H  0.14426053  0.48281026  0.30328578     0.14900
H107        H  0.14219759  0.03363767  0.71155668     0.14900
H108        H  0.14196924  0.47856087  0.70854033     0.14900
H109        H  0.10226599  0.11204650  0.46100437     0.13200
H110        H  0.09950797  0.10966563  0.57075895     0.13200
H111        H  0.09776674  0.40752668  0.44612737     0.13200
H112        H  0.09638208  0.40603259  0.55621460     0.13200
H113        H  0.11000772  0.00955836  0.46014992     0.26400
H114        H  0.10683909  0.00754430  0.55759135     0.26400
N115        N  0.36153161  0.00603002  0.41080972    -0.36300
N116        N  0.36038351  0.05001723  0.49836628    -0.56900
N117        N  0.36410425  0.00710965  0.58421651    -0.36300
N118        N  0.35941956  0.46302271  0.49647566    -0.56900
C119        C  0.35541230  0.02891928  0.38050770     0.27300
C120        C  0.35450954  0.48316362  0.37981956     0.27300
C121        C  0.35807795  0.03008192  0.61627940     0.27200
C122        C  0.35841860  0.48418254  0.61531702     0.27200
C123        C  0.36647493  0.06535085  0.45223657     0.35900
C124        C  0.36700200  0.06603644  0.54372025     0.35900
C125        C  0.36562841  0.44727954  0.45002803     0.35900
C126        C  0.36762122  0.44810700  0.54130599     0.35900
C127        C  0.34410068  0.02054007  0.33002081    -0.21600
C128        C  0.34338464  0.49175231  0.32969530    -0.21600
C129        C  0.34819678  0.02149490  0.66820991    -0.21600
C130        C  0.34853368  0.49266789  0.66766928    -0.21600
C131        C  0.37711401  0.09105010  0.46852537    -0.22700
C132        C  0.37748260  0.09146334  0.52610987    -0.22700
C133        C  0.37795774  0.42250448  0.46561286    -0.22700
C134        C  0.37943095  0.42322420  0.52310808    -0.22700
C135        C  0.36142984  0.05705990  0.39564755    -0.18000
C136        C  0.36005176  0.45488591  0.39377846    -0.18000
C137        C  0.36343788  0.45591113  0.59866106    -0.18000
C138        C  0.36273569  0.05847738  0.60085713    -0.18000
H139        H  0.33716385  0.03379028  0.29670065     0.14900
H140        H  0.33574862  0.47866239  0.29601647     0.14900
H141        H  0.34134689  0.03456432  0.70306404     0.14900
H142        H  0.34213414  0.47949670  0.70200926     0.14900
H143        H  0.38428254  0.10772620  0.44180196     0.13200
H144        H  0.38510391  0.10846961  0.55188257     0.13200
H145        H  0.38597446  0.40601325  0.43846749     0.13200
H146        H  0.38919227  0.40776725  0.54868371     0.13200
H147        H  0.37290100  0.00601728  0.44761159     0.26400
H148        H  0.37425614  0.00701298  0.54527771     0.26400
C149        C  0.10031181  0.39727219  0.78727817     0.30300
C150        C  0.13333020  0.36547328  0.71826273     0.30300
C151        C  0.12947591  0.38986172  0.81033793    -0.05900
C152        C  0.08786402  0.36897625  0.76963768    -0.06700
C153        C  0.10841527  0.41055465  0.72983242    -0.06600
C154        C  0.14575100  0.37266763  0.77597839    -0.05900
C155        C  0.10474829  0.35228574  0.73559141    -0.06700
C156        C  0.12482715  0.39388204  0.69474178    -0.06600
C157        C  0.16983393  0.36647510  0.80497689    -0.32000
N158        N  0.16953269  0.38079280  0.85441106     0.14500
C159        C  0.14512896  0.39547560  0.85767055    -0.32000
H160        H  0.13916888  0.40910579  0.89229750     0.16500
C161        C  0.09020225  0.32735131  0.72823204    -0.30900
N162        N  0.06467937  0.32922751  0.75406976     0.13300
C163        C  0.06314963  0.35463186  0.77994054    -0.30900
C164        C  0.13020182  0.40851125  0.64608336    -0.31200
N165        N  0.11773885  0.43401237  0.65013286     0.13800
H166        H  0.14286814  0.40128065  0.61081129     0.16400
C167        C  0.10477509  0.43553710  0.70148377    -0.31200
H168        H  0.09378195  0.45382397  0.71713555     0.16400
H169        H  0.04546862  0.36205575  0.80485472     0.16400
H170        H  0.18645105  0.35251366  0.79133032     0.16500
H171        H  0.09743244  0.30878014  0.70633413     0.16400
N172        N  0.03496117  0.25703449  0.75035273    -0.36300
N173        N  0.49211277  0.30014526  0.74524324    -0.56900
N174        N  0.44901026  0.25677006  0.73319525    -0.36300
N175        N  0.49171271  0.21380132  0.74820411    -0.56900
C176        C  0.04982499  0.28004524  0.76511917     0.27300
C177        C  0.04977693  0.23441467  0.76606964     0.27300
C178        C  0.43371364  0.27995662  0.74628441     0.27200
C179        C  0.43354687  0.23421588  0.74859956     0.27200
C180        C  0.01546117  0.31571761  0.73651634     0.35900
C181        C  0.47021017  0.31555036  0.72784931     0.35900
C182        C  0.01498204  0.19782768  0.74119124     0.35900
C183        C  0.46956881  0.19761493  0.73377859     0.35900
C184        C  0.07423139  0.27190993  0.79085931    -0.21600
C185        C  0.07424460  0.24314181  0.79128123    -0.21600
C186        C  0.40850478  0.27199376  0.77080291    -0.21600
C187        C  0.40857798  0.24324946  0.77267180    -0.21600
C188        C  0.00837564  0.34090198  0.71284897    -0.22700
C189        C  0.47974191  0.34077002  0.70725629    -0.22700
C190        C  0.00757931  0.17152893  0.72171617    -0.22700
C191        C  0.47888649  0.17140599  0.71695878    -0.22700
C192        C  0.04287445  0.30804043  0.75235929    -0.18000
C193        C  0.04261496  0.20612302  0.75523403    -0.18000
C194        C  0.44101963  0.20568639  0.73993759    -0.18000
C195        C  0.44165294  0.30804129  0.73521148    -0.18000
H196        H  0.09048059  0.28528234  0.80733444     0.14900
H197        H  0.09048824  0.23014417  0.80813308     0.14900
H198        H  0.39206161  0.28546565  0.78719618     0.14900
H199        H  0.39259468  0.23044015  0.79173445     0.14900
H200        H  0.02233541  0.35761812  0.70063246     0.13200
H201        H  0.46739013  0.35740391  0.69008586     0.13200
H202        H  0.02136205  0.15418611  0.71182909     0.13200
H203        H  0.46639447  0.15395216  0.70271309     0.13200
H204        H  0.01732971  0.25668428  0.72537568     0.26400
H205        H  0.46782349  0.25630629  0.71041396     0.26400
C206        C  0.34827262  0.14967362  0.71927899     0.30300
C207        C  0.38241993  0.11770626  0.78059468     0.30300
C208        C  0.35614685  0.12086440  0.69192741    -0.05900
C209        C  0.37769017  0.16219462  0.73046498    -0.06700
C210        C  0.33665159  0.14135953  0.77728233    -0.06600
C211        C  0.37330991  0.10419018  0.72388647    -0.05900
C212        C  0.39467205  0.14589093  0.76261946    -0.06700
C213        C  0.35372343  0.12469318  0.80816082    -0.06600
C214        C  0.37667237  0.07904680  0.69430646    -0.32000
N215        N  0.36326634  0.08031047  0.64452388     0.14500
C216        C  0.35086123  0.10589721  0.64274598    -0.32000
H217        H  0.33890366  0.11307801  0.60774635     0.16500
C218        C  0.41983193  0.15986093  0.76928111    -0.30900
N219        N  0.41911002  0.18429925  0.74096852     0.13300
C220        C  0.39364201  0.18547151  0.71588527    -0.30900
C221        C  0.33856936  0.11759995  0.85616196    -0.31200
N222        N  0.31328378  0.13073365  0.85653474     0.13800
H223        H  0.34535577  0.10373084  0.88856446     0.16400
C224        C  0.31185460  0.14509674  0.80782818    -0.31200
H225        H  0.29408624  0.15740491  0.79537573     0.16400
H226        H  0.38714488  0.20217642  0.68905694     0.16400
H227        H  0.38782433  0.06081461  0.70785663     0.16500
H228        H  0.43724441  0.15281712  0.79378549     0.16400
N229        N  0.24178801  0.37992674  0.08308530    -0.36300
N230        N  0.28538206  0.38187424  0.99571249    -0.56900
N231        N  0.24228697  0.37792410  0.91029059    -0.36300
N232        N  0.19883656  0.38096415  0.99776809    -0.56900
C233        C  0.26444420  0.38735272  0.11344963     0.27300
C234        C  0.21856875  0.38642735  0.11411126     0.27300
C235        C  0.26522926  0.38504822  0.87939901     0.27200
C236        C  0.21942248  0.38522384  0.88088364     0.27200
C237        C  0.30102190  0.37644235  0.04122325     0.35900
C238        C  0.30132243  0.37516334  0.94983740     0.35900
C239        C  0.18285310  0.37484151  0.04332802     0.35900
C240        C  0.18332888  0.37430268  0.95261781     0.35900
C241        C  0.25548106  0.39886173  0.16417166    -0.21600
C242        C  0.22658911  0.39828534  0.16459271    -0.21600
C243        C  0.25682631  0.39716211  0.83013262    -0.21600
C244        C  0.22794678  0.39736624  0.83126584    -0.21600
C245        C  0.32677077  0.36582943  0.02407653    -0.22700
C246        C  0.32703587  0.36512919  0.96638622    -0.22700
C247        C  0.15730709  0.36406869  0.02703808    -0.22700
C248        C  0.15778259  0.36349030  0.96952118    -0.22700
C249        C  0.29291247  0.38243916  0.09782231    -0.18000
C250        C  0.19044271  0.38039587  0.09932175    -0.18000
C251        C  0.19112646  0.37992528  0.89656524    -0.18000
C252        C  0.29346467  0.37963633  0.89339680    -0.18000
H253        H  0.26837570  0.40685167  0.19755119     0.14900
H254        H  0.21307289  0.40577133  0.19835417     0.14900
H255        H  0.27009000  0.40536114  0.79707174     0.14900
H256        H  0.21469872  0.40597689  0.79970042     0.14900
H257        H  0.34348672  0.35890795  0.05038162     0.13200
H258        H  0.34415159  0.35782788  0.93981161     0.13200
H259        H  0.14024393  0.35705474  0.05370755     0.13200
H260        H  0.14148733  0.35550739  0.94301450     0.13200
H261        H  0.24217155  0.36829319  0.04597819     0.26400
H262        H  0.24225767  0.36614898  0.94660383     0.26400
N263        N  0.24314131  0.12692764  0.09265221    -0.36300
N264        N  0.19831082  0.12676475  0.00790720    -0.56900
N265        N  0.24083920  0.13096372  0.91978356    -0.36300
N266        N  0.28572234  0.12566997  0.00398110    -0.56900
C267        C  0.22012208  0.12013343  0.12399419     0.27300
C268        C  0.26633130  0.12002903  0.12199289     0.27300
C269        C  0.21763318  0.12506793  0.88954185     0.27200
C270        C  0.26361678  0.12463078  0.88726506     0.27200
C271        C  0.18334910  0.13255727  0.05545681     0.35900
C272        C  0.18221958  0.13455737  0.96439890     0.35900
C273        C  0.30204086  0.13133947  0.04892016     0.35900
C274        C  0.30038263  0.13388783  0.95782377     0.35900
C275        C  0.22883430  0.10855307  0.17360817    -0.21600
C276        C  0.25781515  0.10850241  0.17236400    -0.21600
C277        C  0.22587921  0.11445899  0.83757918    -0.21600
C278        C  0.25479783  0.11426962  0.83609468    -0.21600
C279        C  0.15791488  0.14441207  0.04195593    -0.22700
C280        C  0.15719388  0.14562732  0.98451580    -0.22700
C281        C  0.32693481  0.14338751  0.03109415    -0.22700
C282        C  0.32571665  0.14519718  0.97373351    -0.22700
C283        C  0.19158301  0.12589993  0.11071677    -0.18000
C284        C  0.29485676  0.12543250  0.10572267    -0.18000
C285        C  0.29203601  0.12981842  0.90125693    -0.18000
C286        C  0.18937646  0.13055963  0.90675489    -0.18000
H287        H  0.21568636  0.10098854  0.20746970     0.14900
H288        H  0.27108084  0.10082523  0.20499551     0.14900
H289        H  0.21252123  0.10749443  0.80406205     0.14900
H290        H  0.26781841  0.10728670  0.80115314     0.14900
H291        H  0.14160566  0.15178567  0.07042788     0.13200
H292        H  0.14027215  0.15407544  0.96048865     0.13200
H293        H  0.34389138  0.15090046  0.05667849     0.13200
H294        H  0.34128467  0.15463426  0.94680984     0.13200
H295        H  0.24294843  0.13841275  0.05606092     0.26400
H296        H  0.24124752  0.14156992  0.95805294     0.26400
C297        C  0.38258140  0.39695376  0.77521315     0.30300
C298        C  0.35085266  0.36393320  0.70867389     0.30300
C299        C  0.35422231  0.38809994  0.80049110    -0.05900
C300        C  0.37445636  0.40986917  0.71821112    -0.06700
C301        C  0.39637717  0.36913335  0.75605799    -0.06600
C302        C  0.33776416  0.37128603  0.76712405    -0.05900
C303        C  0.35728529  0.39342060  0.68532900    -0.06700
C304        C  0.37974765  0.35215707  0.72326979    -0.06600
C305        C  0.31317325  0.36660061  0.79791895    -0.32000
N306        N  0.31481942  0.37956691  0.84899464     0.14500
C307        C  0.33982587  0.39307130  0.85037727    -0.32000
H308        H  0.34701208  0.40578134  0.88505660     0.16500
C309        C  0.35005965  0.40945815  0.63957183    -0.30900
N310        N  0.36403641  0.43423568  0.64123631     0.13300
C311        C  0.37906883  0.43459219  0.68921225    -0.30900
C312        C  0.39461620  0.32793102  0.71136572    -0.31200
N313        N  0.42025052  0.32976801  0.73515870     0.13800
H314        H  0.38729616  0.31029010  0.68692109     0.16400
C315        C  0.42169700  0.35523042  0.76115619    -0.31200
H316        H  0.43990973  0.36294871  0.78267421     0.16400
H317        H  0.39247875  0.45165055  0.70195182     0.16400
H318        H  0.29511754  0.35489496  0.78422251     0.16500
H319        H  0.33565064  0.40354783  0.60705826     0.16400
C320        C  0.38647375  0.11651592  0.22190192     0.30300
C321        C  0.35071000  0.14833960  0.28491654     0.30300
C322        C  0.37580915  0.10291900  0.27684094    -0.05900
C323        C  0.39761886  0.14525800  0.24038940    -0.06700
C324        C  0.35811660  0.12367029  0.19326901    -0.06600
C325        C  0.35767819  0.11922457  0.30892633    -0.05900
C326        C  0.37974510  0.16153171  0.27257113    -0.06700
C327        C  0.33973878  0.13964084  0.22629723    -0.06600
C328        C  0.34912153  0.10321322  0.35429954    -0.32000
N329        N  0.36231049  0.07812946  0.35205928     0.14500
C330        C  0.37778759  0.07731529  0.30359852    -0.32000
H331        H  0.39000877  0.05951660  0.28932909     0.16500
C332        C  0.39369896  0.18676425  0.28230804    -0.30900
N333        N  0.41953128  0.18605617  0.25641249     0.13300
C334        C  0.42183701  0.16059481  0.23070591    -0.30900
C335        C  0.31431247  0.14020024  0.19874988    -0.31200
N336        N  0.31669339  0.12666435  0.14846242     0.13800
H337        H  0.29507945  0.14945041  0.21457112     0.16400
C338        C  0.34330253  0.11593207  0.14537362    -0.31200
H339        H  0.35111228  0.10281137  0.11138361     0.16400
H340        H  0.43974494  0.15379986  0.20571263     0.16400
H341        H  0.33422525  0.10912659  0.38691119     0.16500
H342        H  0.38542046  0.20442783  0.30590019     0.16400
C343        C  0.13241174  0.14860416  0.72771033     0.30300
C344        C  0.09890770  0.11584952  0.79174349     0.30300
C345        C  0.14449278  0.14114449  0.78554539    -0.05900
C346        C  0.10340089  0.16063420  0.74191118    -0.06700
C347        C  0.12613306  0.11919235  0.70363797    -0.06600
C348        C  0.12703049  0.12475818  0.81907718    -0.05900
C349        C  0.08651191  0.14474480  0.77631217    -0.06700
C350        C  0.10800697  0.10331292  0.73486920    -0.06600
C351        C  0.14139935  0.12007563  0.86820202    -0.32000
N352        N  0.16741764  0.13188293  0.86471743     0.14500
C353        C  0.16941125  0.14454796  0.81400298    -0.32000
H354        H  0.18791455  0.15515145  0.79850816     0.16500
C355        C  0.06293169  0.16106264  0.78834410    -0.30900
N356        N  0.06431097  0.18498500  0.75846686     0.13300
C357        C  0.08923961  0.18500535  0.73031207    -0.30900
C358        C  0.10358113  0.07855891  0.70550489    -0.31200
N359        N  0.11956844  0.07869380  0.65793781     0.13800
H360        H  0.08979028  0.06171829  0.71785627     0.16400
C361        C  0.13424213  0.10292922  0.65767584    -0.31200
H362        H  0.14940903  0.10835534  0.62546740     0.16400
H363        H  0.09662667  0.20161449  0.70359668     0.16400
H364        H  0.13372777  0.10821181  0.90345715     0.16500
H365        H  0.04590507  0.15623411  0.81705067     0.16400
C366        C  0.13525969  0.36780209  0.28465984     0.30300
C367        C  0.10304368  0.40153831  0.22215651     0.30300
C368        C  0.14707525  0.37472535  0.22561960    -0.05900
C369        C  0.10609247  0.35550622  0.26954667    -0.06700
C370        C  0.12848453  0.39673403  0.31077692    -0.06600
C371        C  0.13073090  0.39193355  0.19401838    -0.05900
C372        C  0.08953656  0.37270586  0.23721661    -0.06700
C373        C  0.11154808  0.41351809  0.27948027    -0.06600
C374        C  0.14428626  0.39490129  0.14256827    -0.32000
N375        N  0.16880132  0.38053792  0.14277153     0.14500
C376        C  0.17018433  0.36738155  0.19249695    -0.32000
H377        H  0.18696532  0.35341401  0.20318993     0.16500
C378        C  0.06668358  0.35645423  0.22079808    -0.30900
N379        N  0.06791384  0.33080182  0.24444359     0.13300
C380        C  0.09255064  0.32972252  0.27211809    -0.30900
C381        C  0.10709112  0.43809311  0.30980640    -0.31200
N382        N  0.12133960  0.43702950  0.35865525     0.13800
H383        H  0.09433659  0.45547394  0.29713116     0.16400
C384        C  0.13459837  0.41173360  0.35929042    -0.31200
H385        H  0.14751780  0.40455843  0.39294166     0.16400
H386        H  0.10032358  0.31109663  0.29137779     0.16400
H387        H  0.13706295  0.40687580  0.10761930     0.16500
H388        H  0.05060914  0.36216260  0.19185285     0.16400
O389        O  0.02049998  0.01588759  0.12434794    -0.79900
O390        O  0.46330261  0.03473605  0.91509548    -0.79900
O391        O  0.02187635  0.04840411  0.95103031    -0.79900
O392        O  0.46250767  0.05181315  0.03768805    -0.79800
O393        O  0.01295300  0.01832886  0.88518652    -0.80000
O394        O  0.46625256  0.02579345  0.11295837    -0.79900
O395        O  0.42323543  0.03390878  0.96292637    -0.79900
O396        O  0.02825195  0.04751148  0.06041456    -0.79900
C397        C  0.03019980  0.03933453  0.10972999     1.09800
C398        C  0.43780722  0.04239845  0.92179739     1.09700
C399        C  0.02286987  0.04151033  0.90060707     1.09800
C400        C  0.46118048  0.04927832  0.09015024     1.09700
O401        O  0.46111762  0.46935800  0.05828249    -0.79900
O402        O  0.00715528  0.46527001  0.93874239    -0.79900
O403        O  0.05126239  0.49166358  0.05304903    -0.79900
O404        O  0.44464586  0.48244664  0.94956801    -0.79900
O405        O  0.46769334  0.48432405  0.86809106    -0.79900
O406        O  0.01551444  0.46380213  0.06270816    -0.79900
O407        O  0.43102320  0.50238235  0.05331661    -0.79800
O408        O  0.04523522  0.49155709  0.94174147    -0.79900
Co409      Co  0.49054890  0.99349779  0.08630412     1.51500
Co410      Co  0.48450726  0.99872611  0.93279519     1.51700
Co411      Co  0.03480638  0.01998749  0.00142983     1.51600
Co412      Co  0.45579466  0.01846680  0.99328131     1.51500
O413        O  0.49502118  0.00816768  0.01022561    -1.41800
C414        C  0.43693538  0.47802657  0.06775674     1.09800
C415        C  0.03282855  0.46898150  0.92817706     1.09800
C416        C  0.04086233  0.46873883  0.06976357     1.09800
C417        C  0.44769382  0.47507051  0.89786436     1.09800
O418        O  0.24818520  0.19693630  0.44672630    -0.79900
O419        O  0.25708818  0.31190480  0.55297760    -0.79900
O420        O  0.28853456  0.27890653  0.43415563    -0.79900
O421        O  0.25445239  0.23442565  0.63310314    -0.79800
O422        O  0.26144842  0.31562606  0.44015259    -0.80000
O423        O  0.26417776  0.21247447  0.55284842    -0.79900
O424        O  0.28021218  0.27243695  0.56594183    -0.79900
O425        O  0.28126619  0.22676503  0.44322437    -0.79900
C426        C  0.27301792  0.20274761  0.43348935     1.09800
C427        C  0.27774939  0.29855800  0.57222757     1.09700
C428        C  0.28489033  0.30425006  0.42741619     1.09800
C429        C  0.26731626  0.21543987  0.60594472     1.09700
O430        O  0.21368628  0.19043097  0.53447372    -0.79900
O431        O  0.20489826  0.29254544  0.43414157    -0.79900
O432        O  0.22642246  0.23115869  0.38313263    -0.79900
O433        O  0.22604850  0.28097386  0.61042032    -0.79900
O434        O  0.19959479  0.29070499  0.54109377    -0.79900
O435        O  0.19844782  0.22909450  0.45751065    -0.79900
O436        O  0.20722550  0.23165720  0.57516076    -0.79800
O437        O  0.23693988  0.28546652  0.36944540    -0.79900
Co438      Co  0.23039425  0.22256675  0.50435815     1.51500
Co439      Co  0.23069509  0.30109226  0.49205770     1.51700
Co440      Co  0.25832609  0.25541423  0.41058286     1.51600
Co441      Co  0.24534312  0.25131546  0.56555589     1.51500
O442        O  0.24172877  0.26140136  0.48621793    -1.41800
C443        C  0.20085664  0.20574382  0.56978594     1.09800
C444        C  0.21285865  0.29437647  0.38445206     1.09800
C445        C  0.20210590  0.22737706  0.40529901     1.09800
C446        C  0.20395408  0.29143388  0.59229678     1.09800
C447        C  0.08687422  0.42208153  0.18798479    -0.05900
C448        C  0.05798533  0.41850722  0.18393808    -0.17000
C449        C  0.04296737  0.43116041  0.14238546     0.11300
C450        C  0.05654763  0.45082010  0.10730575    -0.05800
C451        C  0.08463419  0.45747065  0.11678890    -0.17000
C452        C  0.09968983  0.44439512  0.15821232     0.11400
S453        S  0.00656508  0.42115384  0.13854382    -0.32000
S454        S  0.13416078  0.45903214  0.17044658    -0.32000
H455        H  0.14120566  0.44548450  0.21941199     0.29400
H456        H  0.00886897  0.41297175  0.08183837     0.29400
H457        H  0.04667175  0.40590717  0.21370795     0.20000
H458        H  0.09485743  0.47370713  0.09290514     0.20000
C459        C  0.15508428  0.35053208  0.31848464    -0.05900
C460        C  0.18390906  0.35548000  0.31180361    -0.17000
C461        C  0.20349904  0.33517023  0.32460204     0.11300
C462        C  0.19420736  0.31029226  0.34936182    -0.05800
C463        C  0.16544373  0.30683002  0.36149404    -0.17000
C464        C  0.14639566  0.32792452  0.35123795     0.11400
S465        S  0.24004092  0.34223122  0.31165894    -0.32000
S466        S  0.11502175  0.32877146  0.39463486    -0.32000
H467        H  0.10981851  0.35741285  0.38893776     0.29400
H468        H  0.23674548  0.36708421  0.28186494     0.29400
H469        H  0.19098078  0.37493719  0.29397637     0.20000
H470        H  0.15844490  0.28935280  0.38648625     0.20000
C471        C  0.14784479  0.16740142  0.68783065    -0.05900
C472        C  0.14274747  0.16328899  0.63050701    -0.17000
C473        C  0.16036697  0.17410702  0.59013731     0.11300
C474        C  0.17981147  0.19441320  0.60689630    -0.05800
C475        C  0.18004447  0.20391152  0.66277557    -0.17000
C476        C  0.16391765  0.19087670  0.70371213     0.11400
S477        S  0.15719696  0.15907433  0.52065676    -0.32000
S478        S  0.16369217  0.20702119  0.77244010    -0.32000
H479        H  0.13713598  0.19788085  0.78981829     0.29400
H480        H  0.17259711  0.17852556  0.49031103     0.29400
H481        H  0.12570675  0.15025258  0.61655542     0.20000
H482        H  0.19366276  0.22095194  0.67512073     0.20000
C483        C  0.07967576  0.09529583  0.82038930    -0.05900
C484        C  0.05065925  0.09844058  0.81235754    -0.17000
C485        C  0.03127113  0.08151948  0.83850839     0.11300
C486        C  0.04076239  0.05766063  0.86491542    -0.05800
C487        C  0.06930544  0.05156277  0.86608442    -0.17000
C488        C  0.08904772  0.06977602  0.84364281     0.11400
S489        S  0.99517805  0.09236940  0.83809689    -0.32000
S490        S  0.12478192  0.05722207  0.84483173    -0.32000
H491        H  0.13568926  0.07069408  0.79784246     0.29400
H492        H  0.98869677  0.08402283  0.89290786     0.29400
H493        H  0.04241180  0.11365059  0.78450209     0.20000
H494        H  0.07632321  0.03274370  0.88626201     0.20000
C495        C  0.40884438  0.10075945  0.18907360    -0.05900
C496        C  0.41216067  0.10633368  0.13184953    -0.17000
C497        C  0.43365936  0.09384398  0.10045530     0.11300
C498        C  0.44916655  0.07215474  0.12438546    -0.05800
C499        C  0.44906330  0.06999096  0.18258976    -0.17000
C500        C  0.43117190  0.08664042  0.21544288     0.11400
S501        S  0.44264031  0.10893566  0.03404099    -0.32000
S502        S  0.44021633  0.09273923  0.28787814    -0.32000
H503        H  0.46456858  0.07624280  0.28780490     0.29400
H504        H  0.47152979  0.10371721  0.03819640     0.29400
H505        H  0.39935524  0.12197836  0.11245106     0.20000
H506        H  0.46328433  0.05569894  0.20222397     0.20000
C507        C  0.29064610  0.18581507  0.39724750    -0.05900
C508        C  0.28949081  0.19198702  0.34018092    -0.17000
C509        C  0.31104452  0.18399970  0.30346764     0.11300
C510        C  0.33209569  0.16605712  0.32286204    -0.05800
C511        C  0.33528002  0.16369738  0.38095977    -0.17000
C512        C  0.31467083  0.17304671  0.41825163     0.11400
S513        S  0.31351764  0.20256690  0.23823201    -0.32000
S514        S  0.32047108  0.16845134  0.49186547    -0.32000
H515        H  0.31333841  0.19589531  0.50762791     0.29400
H516        H  0.34234354  0.19857427  0.22934136     0.29400
H517        H  0.27326223  0.20573157  0.32536663     0.20000
H518        H  0.35378490  0.15400149  0.39755267     0.20000
C519        C  0.29742907  0.31336191  0.60703114    -0.05900
C520        C  0.31562955  0.33208303  0.58163364    -0.17000
C521        C  0.33658591  0.34484401  0.61219259     0.11300
C522        C  0.33481754  0.34421473  0.67136569    -0.05800
C523        C  0.31785878  0.32378853  0.69627448    -0.17000
C524        C  0.29876715  0.30859105  0.66480811     0.11400
S525        S  0.36672501  0.35647097  0.57227050    -0.32000
S526        S  0.27446710  0.28556255  0.69975952    -0.32000
H527        H  0.28521348  0.28862697  0.75391024     0.29400
H528        H  0.38626249  0.35626018  0.61507777     0.29400
H529        H  0.31419644  0.33573206  0.53736490     0.20000
H530        H  0.31939598  0.31981731  0.74043808     0.20000
C531        C  0.39779769  0.41599956  0.81501762    -0.05900
C532        C  0.38970861  0.44417380  0.81616767    -0.17000
C533        C  0.40497587  0.46391838  0.84548023     0.11300
C534        C  0.42859317  0.45512529  0.87427505    -0.05800
C535        C  0.43345803  0.42681614  0.88233833    -0.17000
C536        C  0.41661113  0.40698132  0.85644070     0.11400
S537        S  0.39331866  0.99967665  0.84789150    -0.32000
S538        S  0.41695064  0.37262607  0.88659223    -0.32000
H539        H  0.38995343  0.36468751  0.87084257     0.29400
H540        H  0.37410547  0.99747559  0.80406478     0.29400
H541        H  0.37128946  0.45075584  0.79425763     0.20000
H542        H  0.44959308  0.42028412  0.91070104     0.20000
C543        C  0.42680583  0.06277932  0.88429035    -0.05900
C544        C  0.41292841  0.08547590  0.90848724    -0.17000
C545        C  0.40302306  0.10664849  0.87574644     0.11300
C546        C  0.40207684  0.10212093  0.81709320    -0.05800
C547        C  0.41934914  0.08152829  0.79299158    -0.17000
C548        C  0.43154650  0.06148121  0.82581973     0.11400
S549        S  0.39455555  0.13880019  0.91271893    -0.32000
S550        S  0.44976730  0.03347775  0.78954531    -0.32000
H551        H  0.47547414  0.03804334  0.81532268     0.29400
H552        H  0.39048341  0.15626168  0.86741617     0.29400
H553        H  0.41045553  0.08710676  0.95336726     0.20000
H554        H  0.42343216  0.08091772  0.74845518     0.20000
C555        C  0.32747969  0.16768402  0.68999714    -0.05900
C556        C  0.30628506  0.15423601  0.65957307    -0.17000
C557        C  0.28647491  0.16928754  0.63105197     0.11300
C558        C  0.28737366  0.19848112  0.63404981    -0.05800
C559        C  0.30617217  0.21197557  0.66906823    -0.17000
C560        C  0.32466668  0.19684088  0.70059454     0.11400
S561        S  0.25857715  0.15026196  0.59797554    -0.32000
S562        S  0.33951206  0.21623790  0.75818705    -0.32000
H563        H  0.34272826  0.19424940  0.79530615     0.29400
H564        H  0.26406177  0.16100441  0.54457782     0.29400
H565        H  0.30396466  0.13184975  0.66029746     0.20000
H566        H  0.30527698  0.23443133  0.67444088     0.20000
C567        C  0.04744816  0.44887365  0.89285036    -0.05900
C568        C  0.06290900  0.42803574  0.91781328    -0.17000
C569        C  0.07804862  0.40891642  0.88500521     0.11300
C570        C  0.08055371  0.41323768  0.82619216    -0.05800
C571        C  0.06136840  0.43130370  0.80188241    -0.17000
C572        C  0.04540411  0.44969850  0.83430914     0.11400
S573        S  0.08961078  0.37847322  0.92166615    -0.32000
S574        S  0.02256360  0.47370643  0.79984019    -0.32000
H575        H  0.03363965  0.46983126  0.74534860     0.29400
H576        H  0.09338228  0.36040134  0.87585005     0.29400
H577        H  0.06227262  0.42604346  0.96297457     0.20000
H578        H  0.05823730  0.43063794  0.75732973     0.20000
C579        C  0.15224835  0.34898399  0.67893231    -0.05900
C580        C  0.14035661  0.32831720  0.64471955    -0.17000
C581        C  0.15663339  0.30725706  0.62101956     0.11300
C582        C  0.18580543  0.30843027  0.62711358    -0.05800
C583        C  0.19814444  0.33142203  0.65327126    -0.17000
C584        C  0.18174176  0.35271936  0.67608453     0.11400
S585        S  0.13906251  0.27965356  0.58327316    -0.32000
S586        S  0.20029699  0.38467400  0.69245705    -0.32000
H587        H  0.17769795  0.40227323  0.70453744     0.29400
H588        H  0.15861320  0.25885580  0.59579618     0.29400
H589        H  0.11829242  0.32852574  0.63588964     0.20000
H590        H  0.22072982  0.33393870  0.65162603     0.20000
C591        C  0.30446513  0.31729091  0.38936189    -0.05900
C592        C  0.29911200  0.31357603  0.33237542    -0.17000
C593        C  0.31686825  0.32501287  0.29243716     0.11300
C594        C  0.33706074  0.34441113  0.31086011    -0.05800
C595        C  0.34625418  0.34227160  0.36614866    -0.17000
C596        C  0.33123206  0.32655820  0.40453548     0.11400
S597        S  0.31748581  0.30806474  0.22439091    -0.32000
S598        S  0.35014865  0.31414257  0.46364691    -0.32000
H599        H  0.33114112  0.29377632  0.48175977     0.29400
H600        H  0.34536347  0.31480910  0.21085158     0.29400
H601        H  0.28248601  0.29978146  0.31896071     0.20000
H602        H  0.36578419  0.35186747  0.37858224     0.20000
C603        C  0.41869168  0.46053769  0.10093463    -0.05900
C604        C  0.41200525  0.43445165  0.07775894    -0.17000
C605        C  0.40340565  0.41243920  0.11159639     0.11300
C606        C  0.40087965  0.41710891  0.17043093    -0.05800
C607        C  0.41273184  0.44138840  0.19264258    -0.17000
C608        C  0.41877767  0.46399869  0.15929910     0.11400
S609        S  0.39916450  0.37919256  0.07578125    -0.32000
S610        S  0.42811128  0.49612364  0.19406022    -0.32000
H611        H  0.41464541  0.51309751  0.15525056     0.29400
H612        H  0.39075932  0.36238101  0.12010343     0.29400
H613        H  0.41506970  0.43079124  0.03316404     0.20000
H614        H  0.41792516  0.44275434  0.23615315     0.20000
C615        C  0.17911130  0.21647432  0.37144126    -0.05900
C616        C  0.18336477  0.21268361  0.31405115    -0.17000
C617        C  0.16620965  0.19458021  0.28433813     0.11300
C618        C  0.14968110  0.17477728  0.31485875    -0.05800
C619        C  0.14223192  0.18213760  0.37024391    -0.17000
C620        C  0.15487624  0.20491939  0.39648940     0.11400
S621        S  0.16352630  0.20235092  0.21065191    -0.32000
S622        S  0.13755677  0.22036255  0.45711635    -0.32000
H623        H  0.14868025  0.24723546  0.44908621     0.29400
H624        H  0.13622712  0.19248136  0.20339369     0.29400
H625        H  0.19926494  0.22466048  0.29210032     0.20000
H626        H  0.12519084  0.17144945  0.39146002     0.20000
C627        C  0.08101901  0.09302921  0.20610641    -0.05900
C628        C  0.09315693  0.07333327  0.16939517    -0.17000
C629        C  0.07687762  0.05586197  0.13693446     0.11300
C630        C  0.04785076  0.05526678  0.14671477    -0.05800
C631        C  0.03581293  0.07109513  0.19000810    -0.17000
C632        C  0.05216473  0.08945614  0.22133735     0.11400
S633        S  0.09360450  0.03504753  0.08241702    -0.32000
S634        S  0.03429997  0.10546171  0.28078027    -0.32000
H635        H  0.05739060  0.11117833  0.31403496     0.29400
H636        H  0.12043325  0.04702281  0.08599211     0.29400
H637        H  0.11549140  0.07088866  0.16670031     0.20000
H638        H  0.01356507  0.06936745  0.19895942     0.20000
C639        C  0.10013164  0.61469911  0.23198510     0.30300
C640        C  0.13344843  0.65131663  0.28744875     0.30300
C641        C  0.12898433  0.62130647  0.20253666    -0.05900
C642        C  0.08768791  0.64416302  0.24143317    -0.06700
C643        C  0.10928315  0.60564485  0.29032794    -0.06600
C644        C  0.14625848  0.63899552  0.23273250    -0.05900
C645        C  0.10448764  0.66228063  0.27083300    -0.06700
C646        C  0.12627578  0.62397116  0.31974656    -0.06600
C647        C  0.17198081  0.63991596  0.20491838    -0.32000
N648        N  0.17024986  0.62594719  0.15536805     0.14500
C649        C  0.14404083  0.61460558  0.15339327    -0.32000
H650        H  0.13642525  0.60294263  0.11772305     0.16500
C651        C  0.09010680  0.68722682  0.27746098    -0.30900
N652        N  0.06511235  0.68530671  0.25125752     0.13300
C653        C  0.06364562  0.65906361  0.22838926    -0.30900
C654        C  0.13416194  0.60944741  0.36751536    -0.31200
N655        N  0.12199780  0.58338604  0.36734169     0.13800
H656        H  0.14827434  0.61705540  0.39921519     0.16400
C657        C  0.10685312  0.58125426  0.31999497    -0.31200
H658        H  0.09502344  0.56300461  0.30747609     0.16400
H659        H  0.04630702  0.65135424  0.20406379     0.16400
H660        H  0.19043865  0.65094152  0.21875895     0.16500
H661        H  0.09744045  0.70555561  0.29974761     0.16400
N662        N  0.49252512  0.71549134  0.24809181    -0.36300
N663        N  0.44989308  0.75883195  0.24939074    -0.56900
N664        N  0.49456579  0.80169113  0.23840617    -0.36300
N665        N  0.03712731  0.75844627  0.24746051    -0.56900
C666        C  0.46944258  0.70089858  0.26493985     0.27300
C667        C  0.01547050  0.70060409  0.26239734     0.27300
C668        C  0.47151124  0.81742834  0.25048596     0.27200
C669        C  0.01750911  0.81711335  0.25192224     0.27200
C670        C  0.43344071  0.73593669  0.24150328     0.35900
C671        C  0.43483080  0.78131641  0.23347622     0.35900
C672        C  0.05250759  0.73509607  0.23669643     0.35900
C673        C  0.05368979  0.78065130  0.23462491     0.35900
C674        C  0.47792832  0.67672098  0.29080231    -0.21600
C675        C  0.00683438  0.67667534  0.28952962    -0.21600
C676        C  0.47989084  0.84294969  0.27238685    -0.21600
C677        C  0.00875641  0.84271448  0.27353482    -0.21600
C678        C  0.40797910  0.74390850  0.22012607    -0.22700
C679        C  0.40891055  0.77248568  0.21472382    -0.22700
C680        C  0.07876432  0.74259691  0.21623891    -0.22700
C681        C  0.07954257  0.77131895  0.21518225    -0.22700
C682        C  0.44096262  0.70806149  0.25483428    -0.18000
C683        C  0.04393451  0.70728218  0.24911290    -0.18000
C684        C  0.04610444  0.80919925  0.24283613    -0.18000
C685        C  0.44317457  0.80981788  0.24016683    -0.18000
H686        H  0.46469015  0.66084437  0.30920955     0.14900
H687        H  0.02003872  0.66104898  0.30756990     0.14900
H688        H  0.46661653  0.85995045  0.28679515     0.14900
H689        H  0.02171648  0.85952331  0.28911762     0.14900
H690        H  0.39064224  0.73056410  0.20878895     0.13200
H691        H  0.39229949  0.78525109  0.19862801     0.13200
H692        H  0.09568625  0.72887588  0.20320936     0.13200
H693        H  0.09708608  0.78382921  0.20105706     0.13200
H694        H  0.49269165  0.73306926  0.22299692     0.26400
H695        H  0.49459640  0.78260360  0.21708834     0.26400
C696        C  0.35204928  0.86452851  0.27355914     0.30300
C697        C  0.38352208  0.89893603  0.20912449     0.30300
C698        C  0.33864854  0.87287922  0.21758748    -0.05900
C699        C  0.35812638  0.89334672  0.30055352    -0.06700
C700        C  0.38122095  0.85376723  0.25702059    -0.06600
C701        C  0.35489531  0.89032567  0.18468849    -0.05900
C702        C  0.37402562  0.91133104  0.26790154    -0.06700
C703        C  0.39749139  0.87097107  0.22428142    -0.06600
C704        C  0.33936908  0.89660231  0.13783601    -0.32000
N705        N  0.31423551  0.88327763  0.14088429     0.14500
C706        C  0.31318044  0.86983377  0.19068568    -0.32000
H707        H  0.29492871  0.85887117  0.20625707     0.12100
C708        C  0.37495176  0.93644789  0.29861085    -0.30900
N709        N  0.36156623  0.93365999  0.34903075     0.13300
C710        C  0.35072239  0.90740377  0.34998092    -0.30900
C711        C  0.42261908  0.85678657  0.21417468    -0.31200
N712        N  0.42169953  0.83156397  0.24042959     0.13800
H713        H  0.44005896  0.86415041  0.18890032     0.16400
C714        C  0.39645785  0.83000297  0.26736019    -0.31200
H715        H  0.38952128  0.81267449  0.29265635     0.16400
H716        H  0.33804153  0.89923376  0.38395101     0.16400
H717        H  0.34577092  0.91003081  0.10393766     0.16500
H718        H  0.38390964  0.95600183  0.28552011     0.16400
N719        N  0.12082476  0.50979998  0.42193226    -0.36300
N720        N  0.12287209  0.55185026  0.51073846    -0.56900
N721        N  0.11768372  0.50701532  0.59491334    -0.36300
N722        N  0.12101929  0.96497387  0.50617478    -0.56900
C723        C  0.12771724  0.53300740  0.39222812     0.27300
C724        C  0.12662707  0.98692638  0.38931103     0.27300
C725        C  0.12435804  0.52954167  0.62695250     0.27200
C726        C  0.12381290  0.98389274  0.62461347     0.27200
C727        C  0.11827280  0.56875685  0.46668630     0.35900
C728        C  0.11594376  0.56677905  0.55752943     0.35900
C729        C  0.11534806  0.94990815  0.45917069     0.35900
C730        C  0.11421016  0.94862202  0.55048925     0.35900
C731        C  0.13813481  0.52463275  0.34015600    -0.21600
C732        C  0.13745623  0.99577324  0.33833087    -0.21600
C733        C  0.13493930  0.52070514  0.67728555    -0.21600
C734        C  0.13473361  0.99194899  0.67572023    -0.21600
C735        C  0.10832930  0.59436991  0.48566672    -0.22700
C736        C  0.10679667  0.59309336  0.54301961    -0.22700
C737        C  0.10464173  0.92408441  0.47387270    -0.22700
C738        C  0.10392405  0.92327992  0.53142027    -0.22700
C739        C  0.12337718  0.56152500  0.40960151    -0.18000
C740        C  0.12111899  0.95837190  0.40314395    -0.18000
C741        C  0.11847668  0.95581665  0.60780275    -0.18000
C742        C  0.11969272  0.55784692  0.61334617    -0.18000
H743        H  0.14552745  0.53792582  0.30677837     0.14900
H744        H  0.14425933  0.98281073  0.30328452     0.14900
H745        H  0.14219814  0.53363644  0.71155871     0.14900
H746        H  0.14196847  0.97856211  0.70853837     0.14900
H747        H  0.10226525  0.61204514  0.46100665     0.13200
H748        H  0.09950752  0.60966381  0.57076138     0.13200
H749        H  0.09776511  0.90752776  0.44612681     0.13200
H750        H  0.09638020  0.90603395  0.55621419     0.13200
H751        H  0.11000827  0.50955731  0.46015119     0.26400
H752        H  0.10684114  0.50754307  0.55759253     0.26400
N753        N  0.36153004  0.50603089  0.41080871    -0.36300
N754        N  0.36038349  0.55001789  0.49836584    -0.56900
N755        N  0.36410427  0.50711013  0.58421527    -0.36300
N756        N  0.35942121  0.96302199  0.49647708    -0.56900
C757        C  0.35541092  0.52892033  0.38050723     0.27300
C758        C  0.35451149  0.98316253  0.37982087     0.27300
C759        C  0.35807804  0.53008237  0.61627841     0.27200
C760        C  0.35841876  0.98418206  0.61531836     0.27200
C761        C  0.36647484  0.56535151  0.45223616     0.35900
C762        C  0.36700228  0.56603698  0.54371977     0.35900
C763        C  0.36563043  0.94727872  0.45002984     0.35900
C764        C  0.36762254  0.94810645  0.54130784     0.35900
C765        C  0.34409901  0.52054144  0.33002037    -0.21600
C766        C  0.34338666  0.99175095  0.32969633    -0.21600
C767        C  0.34819673  0.52149532  0.66820870    -0.21600
C768        C  0.34853383  0.99266746  0.66767064    -0.21600
C769        C  0.37711423  0.59105067  0.46852489    -0.22700
C770        C  0.37748303  0.59146385  0.52610944    -0.22700
C771        C  0.37795975  0.92250374  0.46561526    -0.22700
C772        C  0.37943254  0.92322364  0.52311059    -0.22700
C773        C  0.36142922  0.55706074  0.39564729    -0.18000
C774        C  0.36005373  0.95488485  0.39378024    -0.18000
C775        C  0.36343836  0.95591065  0.59866264    -0.18000
C776        C  0.36273590  0.55847784  0.60085649    -0.18000
H777        H  0.33716239  0.53379188  0.29670039     0.14900
H778        H  0.33575074  0.97866079  0.29601774     0.14900
H779        H  0.34134672  0.53456471  0.70306275     0.14900
H780        H  0.34213449  0.97949628  0.70201079     0.14900
H781        H  0.38428267  0.60772677  0.44180139     0.13200
H782        H  0.38510443  0.60847006  0.55188222     0.13200
H783        H  0.38597649  0.90601237  0.43847022     0.13200
H784        H  0.38919349  0.90776665  0.54868675     0.13200
H785        H  0.37289966  0.50601784  0.44761016     0.26400
H786        H  0.37425611  0.50701345  0.54527664     0.26400
C787        C  0.10031129  0.89727262  0.78727707     0.30300
C788        C  0.13332999  0.86547442  0.71826103     0.30300
C789        C  0.12947539  0.88986210  0.81033709    -0.05900
C790        C  0.08786366  0.86897673  0.76963554    -0.06700
C791        C  0.10841483  0.91055559  0.72983173    -0.06600
C792        C  0.14575067  0.87266838  0.77597714    -0.05900
C793        C  0.10474805  0.85228661  0.73558889    -0.06700
C794        C  0.12482687  0.89388333  0.69474084    -0.06600
C795        C  0.16983343  0.86647549  0.80497604    -0.32000
N796        N  0.16953188  0.88079247  0.85441112     0.14500
C797        C  0.14512820  0.89547538  0.85767048    -0.32000
H798        H  0.13916796  0.90910523  0.89229785     0.16500
C799        C  0.09020200  0.82735223  0.72822817    -0.30900
N800        N  0.06467902  0.82922808  0.75406562     0.13300
C801        C  0.06314926  0.85463215  0.77993756    -0.30900
C802        C  0.13020119  0.90851272  0.64608247    -0.31200
N803        N  0.11773783  0.93401365  0.65013213     0.13800
H804        H  0.14286741  0.90128232  0.61081016     0.16400
C805        C  0.10477422  0.93553808  0.70148324    -0.31200
H806        H  0.09378075  0.95382472  0.71713517     0.16400
H807        H  0.04546824  0.86205576  0.80485207     0.16400
H808        H  0.18645063  0.85251422  0.79132917     0.16500
H809        H  0.09743233  0.80878129  0.70632966     0.16400
N810        N  0.03496113  0.75703460  0.75034690    -0.36300
N811        N  0.49211242  0.80014529  0.74524081    -0.56900
N812        N  0.44900978  0.75676987  0.73319537    -0.36300
N813        N  0.49171246  0.71380122  0.74820089    -0.56900
C814        C  0.04982521  0.78004540  0.76511253     0.27300
C815        C  0.04977714  0.73441474  0.76606312     0.27300
C816        C  0.43371321  0.77995633  0.74628559     0.27200
C817        C  0.43354655  0.73421555  0.74859954     0.27200
C818        C  0.01546058  0.81571798  0.73651380     0.35900
C819        C  0.47020935  0.81555061  0.72784988     0.35900
C820        C  0.01498168  0.69782744  0.74118850     0.35900
C821        C  0.46956842  0.69761462  0.73377707     0.35900
C822        C  0.07423202  0.77191005  0.79085098    -0.21600
C823        C  0.07424524  0.74314195  0.79127295    -0.21600
C824        C  0.40850453  0.77199323  0.77080457    -0.21600
C825        C  0.40857779  0.74324893  0.77267260    -0.21600
C826        C  0.00837440  0.84090281  0.71284919    -0.22700
C827        C  0.47974056  0.84077083  0.70725854    -0.22700
C828        C  0.00757878  0.67152843  0.72171519    -0.22700
C829        C  0.47888596  0.67140547  0.71695832    -0.22700
C830        C  0.04287422  0.80804076  0.75235457    -0.18000
C831        C  0.04261482  0.70612292  0.75522946    -0.18000
C832        C  0.44101927  0.70568608  0.73993699    -0.18000
C833        C  0.44165223  0.80804118  0.73521328    -0.18000
H834        H  0.09048138  0.78528241  0.80732567     0.14900
H835        H  0.09048906  0.73014440  0.80812432     0.14900
H836        H  0.39206141  0.78546496  0.78719858     0.14900
H837        H  0.39259461  0.73043946  0.79173522     0.14900
H838        H  0.02233380  0.85761936  0.70063318     0.13200
H839        H  0.46738842  0.85740507  0.69009048     0.13200
H840        H  0.02136143  0.65418548  0.71182855     0.13200
H841        H  0.46639385  0.65395142  0.70271403     0.13200
H842        H  0.01732915  0.75668441  0.72537156     0.26400
H843        H  0.46782287  0.75630627  0.71041339     0.26400
C844        C  0.34827217  0.64967364  0.71927935     0.30300
C845        C  0.38241941  0.61770615  0.78059510     0.30300
C846        C  0.35614644  0.62086447  0.69192760    -0.05900
C847        C  0.37768971  0.66219455  0.73046547    -0.06700
C848        C  0.33665114  0.64135948  0.77728259    -0.06600
C849        C  0.37330943  0.60419017  0.72388672    -0.05900
C850        C  0.39467156  0.64589082  0.76261994    -0.06700
C851        C  0.35372293  0.62469306  0.80816106    -0.06600
C852        C  0.37667211  0.57904695  0.69430631    -0.32000
N853        N  0.36326636  0.58031081  0.64452347     0.14500
C854        C  0.35086118  0.60589752  0.64274572    -0.32000
H855        H  0.33890381  0.61307844  0.60774590     0.16500
C856        C  0.41983150  0.65986076  0.76928127    -0.30900
N857        N  0.41910962  0.68429900  0.74096837     0.13300
C858        C  0.39364156  0.68547133  0.71588547    -0.30900
C859        C  0.33856888  0.61759982  0.85616214    -0.31200
N860        N  0.31328337  0.63073361  0.85653488     0.13800
H861        H  0.34535524  0.60373069  0.88856463     0.16400
C862        C  0.31185421  0.64509678  0.80782844    -0.31200
H863        H  0.29408589  0.65740504  0.79537611     0.16400
H864        H  0.38714435  0.70217624  0.68905722     0.16400
H865        H  0.38782403  0.56081471  0.70785636     0.16500
H866        H  0.43724397  0.65281695  0.79378564     0.16400
N867        N  0.24178739  0.87992485  0.08308634    -0.36300
N868        N  0.28538132  0.88187311  0.99571406    -0.56900
N869        N  0.24228599  0.87792364  0.91029156    -0.36300
N870        N  0.19883566  0.88096239  0.99776871    -0.56900
C871        C  0.26444359  0.88735092  0.11345110     0.27300
C872        C  0.21856796  0.88642523  0.11411235     0.27300
C873        C  0.26522824  0.88504832  0.87940076     0.27200
C874        C  0.21942153  0.88522344  0.88088473     0.27200
C875        C  0.30102147  0.87644137  0.04122448     0.35900
C876        C  0.30132161  0.87516280  0.94983858     0.35900
C877        C  0.18285227  0.87483943  0.04332858     0.35900
C878        C  0.18332798  0.87430125  0.95261813     0.35900
C879        C  0.25548024  0.89885970  0.16417310    -0.21600
C880        C  0.22658825  0.89828310  0.16459393    -0.21600
C881        C  0.25682534  0.89716271  0.83013482    -0.21600
C882        C  0.22794584  0.89736650  0.83126756    -0.21600
C883        C  0.32677052  0.86582907  0.02407711    -0.22700
C884        C  0.32703535  0.86512905  0.96638679    -0.22700
C885        C  0.15730632  0.86406656  0.02703823    -0.22700
C886        C  0.15778178  0.86348858  0.96952121    -0.22700
C887        C  0.29291207  0.88243784  0.09782371    -0.18000
C888        C  0.19044181  0.88039376  0.09932252    -0.18000
C889        C  0.19112551  0.87992452  0.89656568    -0.18000
C890        C  0.29346365  0.87963631  0.89339824    -0.18000
H891        H  0.26837474  0.90684970  0.19755277     0.14900
H892        H  0.21307196  0.90576898  0.19835537     0.14900
H893        H  0.27008901  0.90536218  0.79707439     0.14900
H894        H  0.21469782  0.90597723  0.79970212     0.14900
H895        H  0.34348681  0.85890791  0.05038169     0.13200
H896        H  0.34415115  0.85782831  0.93981181     0.13200
H897        H  0.14024315  0.85705247  0.05370751     0.13200
H898        H  0.14148652  0.85550590  0.94301427     0.13200
H899        H  0.24217103  0.86829173  0.04597942     0.26400
H900        H  0.24225674  0.86614795  0.94660467     0.26400
N901        N  0.24314175  0.62692643  0.09265142    -0.36300
N902        N  0.19831087  0.62676459  0.00790671    -0.56900
N903        N  0.24083887  0.63096390  0.91978335    -0.36300
N904        N  0.28572246  0.62566923  0.00398079    -0.56900
C905        C  0.22012252  0.62013234  0.12399338     0.27300
C906        C  0.26633170  0.62002769  0.12199202     0.27300
C907        C  0.21763284  0.62506802  0.88954177     0.27200
C908        C  0.26361643  0.62463069  0.88726518     0.27200
C909        C  0.18334946  0.63255712  0.05545670     0.35900
C910        C  0.18221947  0.63455752  0.96439883     0.35900
C911        C  0.30204109  0.63133864  0.04891971     0.35900
C912        C  0.30038242  0.63388768  0.95782361     0.35900
C913        C  0.22883468  0.60855179  0.17360726    -0.21600
C914        C  0.25781554  0.60850099  0.17236305    -0.21600
C915        C  0.22587887  0.61445870  0.83757943    -0.21600
C916        C  0.25479749  0.61426923  0.83609503    -0.21600
C917        C  0.15791526  0.64441221  0.04195649    -0.22700
C918        C  0.15719395  0.64562764  0.98451635    -0.22700
C919        C  0.32693481  0.64338715  0.03109375    -0.22700
C920        C  0.32571637  0.64519723  0.97373323    -0.22700
C921        C  0.19158352  0.62589939  0.11071643    -0.18000
C922        C  0.29485711  0.62543140  0.10572206    -0.18000
C923        C  0.29203565  0.62981840  0.90125694    -0.18000
C924        C  0.18937611  0.63055986  0.90675471    -0.18000
H925        H  0.21568670  0.60098737  0.20746882     0.14900
H926        H  0.27108125  0.60082381  0.20499455     0.14900
H927        H  0.21252088  0.60749395  0.80406249     0.14900
H928        H  0.26781808  0.60728604  0.80115371     0.14900
H929        H  0.14160625  0.65178581  0.07042892     0.13200
H930        H  0.14027215  0.65407593  0.96048958     0.13200
H931        H  0.34389139  0.65090015  0.05667800     0.13200
H932        H  0.34128414  0.65463468  0.94680952     0.13200
H933        H  0.24294888  0.63841181  0.05606025     0.26400
H934        H  0.24124726  0.64157042  0.95805273     0.26400
C935        C  0.38258038  0.89695360  0.77521535     0.30300
C936        C  0.35085182  0.86393296  0.70867582     0.30300
C937        C  0.35422111  0.88810007  0.80049271    -0.05900
C938        C  0.37445578  0.90986880  0.71821301    -0.06700
C939        C  0.39637606  0.86913301  0.75606106    -0.06600
C940        C  0.33776305  0.87128607  0.76712564    -0.05900
C941        C  0.35728480  0.89342024  0.68533067    -0.06700
C942        C  0.37974664  0.85215670  0.72327270    -0.06600
C943        C  0.31317210  0.86660070  0.79792042    -0.32000
N944        N  0.31481819  0.87956719  0.84899592     0.14500
C945        C  0.33982456  0.89307167  0.85037855    -0.32000
H946        H  0.34701070  0.90578177  0.88505786     0.16500
C947        C  0.35005958  0.90945780  0.63957319    -0.30900
N948        N  0.36403649  0.93423524  0.64123790     0.13300
C949        C  0.37906861  0.93459172  0.68921415    -0.30900
C950        C  0.39461522  0.82793064  0.71136889    -0.31200
N951        N  0.42024951  0.82976766  0.73516194     0.13800
H952        H  0.38729533  0.81028980  0.68692389     0.16400
C953        C  0.42169586  0.85523004  0.76115970    -0.31200
H954        H  0.43990856  0.86294838  0.78267777     0.16400
H955        H  0.39247857  0.95165003  0.70195390     0.16400
H956        H  0.29511650  0.85489482  0.78422419     0.16500
H957        H  0.33565072  0.90354757  0.60705929     0.16400
C958        C  0.38647388  0.61651626  0.22190210     0.30300
C959        C  0.35070976  0.64834007  0.28491571     0.30300
C960        C  0.37580905  0.60291950  0.27684089    -0.05900
C961        C  0.39761881  0.64525832  0.24038960    -0.06700
C962        C  0.35811687  0.62367055  0.19326853    -0.06600
C963        C  0.35767791  0.61922513  0.30892578    -0.05900
C964        C  0.37974485  0.66153216  0.27257062    -0.06700
C965        C  0.33973884  0.63964118  0.22629626    -0.06600
C966        C  0.34912121  0.60321403  0.35429918    -0.32000
N967        N  0.36231020  0.57813029  0.35205925     0.14500
C968        C  0.37778746  0.57731592  0.30359875    -0.32000
H969        H  0.39000867  0.55951718  0.28932968     0.16500
C970        C  0.39369868  0.68676468  0.28230754    -0.30900
N971        N  0.41953122  0.68605631  0.25641297     0.13300
C972        C  0.42183705  0.66059494  0.23070670    -0.30900
C973        C  0.31431252  0.64019989  0.19874897    -0.31200
N974        N  0.31669366  0.62666368  0.14846187     0.13800
H975        H  0.29507929  0.64944966  0.21457012     0.16400
C976        C  0.34330293  0.61593172  0.14537338    -0.31200
H977        H  0.35111283  0.60281079  0.11138387     0.16400
H978        H  0.43974519  0.65379984  0.20571421     0.16400
H979        H  0.33422490  0.60912758  0.38691067     0.16500
H980        H  0.38542009  0.70442839  0.30589915     0.16400
C981        C  0.13241158  0.64860354  0.72770931     0.30300
C982        C  0.09890730  0.61584957  0.79174313     0.30300
C983        C  0.14449234  0.64114456  0.78554505    -0.05900
C984        C  0.10340059  0.66063361  0.74190877    -0.06700
C985        C  0.12613328  0.61919150  0.70363814    -0.06600
C986        C  0.12702990  0.62475861  0.81907722    -0.05900
C987        C  0.08651155  0.64474466  0.77631031    -0.06700
C988        C  0.10800705  0.60331232  0.73486952    -0.06600
C989        C  0.14139872  0.62007627  0.86820225    -0.32000
N990        N  0.16741716  0.63188328  0.86471737     0.14500
C991        C  0.16941086  0.64454798  0.81400258    -0.32000
H992        H  0.18791425  0.65515118  0.79850738     0.16500
C993        C  0.06293142  0.66106277  0.78834149    -0.30900
N994        N  0.06431071  0.68498475  0.75846294     0.13300
C995        C  0.08923935  0.68500462  0.73030818    -0.30900
C996        C  0.10358171  0.57855793  0.70550601    -0.31200
N997        N  0.11956940  0.57869250  0.65793937     0.13800
H998        H  0.08979087  0.56171733  0.71785750     0.16400
C999        C  0.13424291  0.60292800  0.65767700    -0.31200
H1000       H  0.14940995  0.60835401  0.62546873     0.16400
H1001       H  0.09662650  0.70161344  0.70359207     0.16400
H1002       H  0.13372707  0.60821256  0.90345748     0.16500
H1003       H  0.04590486  0.65623472  0.81704855     0.16400
C1004       C  0.13525916  0.86780205  0.28466215     0.30300
C1005       C  0.10304287  0.90153739  0.22215770     0.30300
C1006       C  0.14707446  0.87472445  0.22562120    -0.05900
C1007       C  0.10609193  0.85550592  0.26955023    -0.06700
C1008       C  0.12848412  0.89673431  0.31077792    -0.06600
C1009       C  0.13073000  0.89193230  0.19401943    -0.05900
C1010       C  0.08953587  0.87270512  0.23721950    -0.06700
C1011       C  0.11154752  0.91351793  0.27948072    -0.06600
C1012       C  0.14428522  0.89489949  0.14256892    -0.32000
N1013       N  0.16880025  0.88053599  0.14277228     0.14500
C1014       C  0.17018331  0.86738011  0.19249831    -0.32000
H1015       H  0.18696431  0.85341267  0.20319177     0.16500
C1016       C  0.06668340  0.85645291  0.22080057    -0.30900
N1017       N  0.06791394  0.83080075  0.24444691     0.13300
C1018       C  0.09255058  0.82972197  0.27212198    -0.30900
C1019       C  0.10709048  0.93809322  0.30980597    -0.31200
N1020       N  0.12133894  0.93703012  0.35865492     0.13800
H1021       H  0.09433574  0.95547381  0.29713027     0.16400
C1022       C  0.13459786  0.91173433  0.35929097    -0.31200
H1023       H  0.14751717  0.90455949  0.39294268     0.16400
H1024       H  0.10032372  0.81109626  0.29138208     0.16400
H1025       H  0.13706185  0.90687383  0.10761974     0.16500
H1026       H  0.05060919  0.86216051  0.19185424     0.16400
O1027       O  0.02049990  0.51588858  0.12434724    -0.79900
O1028       O  0.46330195  0.53473508  0.91509425    -0.79900
O1029       O  0.02187529  0.54840505  0.95102970    -0.79900
O1030       O  0.46250795  0.55181376  0.03768853    -0.79800
O1031       O  0.01295270  0.51832921  0.88518646    -0.80000
O1032       O  0.46625254  0.52579381  0.11295845    -0.79900
O1033       O  0.42323536  0.53390952  0.96292782    -0.79900
O1034       O  0.02825044  0.54751280  0.06041401    -0.79900
C1035       C  0.03019914  0.53933570  0.10972912     1.09800
C1036       C  0.43780692  0.54239846  0.92179791     1.09700
C1037       C  0.02286899  0.54151100  0.90060660     1.09800
C1038       C  0.46118063  0.54927879  0.09015068     1.09700
O1039       O  0.46111737  0.96935748  0.05828260    -0.79900
O1040       O  0.00715372  0.96526963  0.93874191    -0.79900
O1041       O  0.05126229  0.99166178  0.05304865    -0.79900
O1042       O  0.44464607  0.98244589  0.94956834    -0.79900
O1043       O  0.46769243  0.98432515  0.86809069    -0.79900
O1044       O  0.01551378  0.96380113  0.06270901    -0.79900
O1045       O  0.43102297  0.00238179  0.05331642    -0.79800
O1046       O  0.04523451  0.99155545  0.94174139    -0.79900
Co1047     Co  0.49054907  0.49349839  0.08630377     1.51500
Co1048     Co  0.48450764  0.49872575  0.93279515     1.51700
Co1049     Co  0.03480600  0.51998892  0.00142965     1.51600
Co1050     Co  0.45579474  0.51846750  0.99328146     1.51500
O1051       O  0.49502117  0.50816814  0.01022515    -1.41800
C1052       C  0.43693506  0.97802595  0.06775638     1.09800
C1053       C  0.03282709  0.96898032  0.92817674     1.09800
C1054       C  0.04086191  0.96873714  0.06976294     1.09800
C1055       C  0.44769346  0.97507069  0.89786417     1.09800
O1056       O  0.24818565  0.69693640  0.44672713    -0.79900
O1057       O  0.25708764  0.81190457  0.55297843    -0.79900
O1058       O  0.28853414  0.77890682  0.43415716    -0.79900
O1059       O  0.25445051  0.73442522  0.63310444    -0.79800
O1060       O  0.26144773  0.81562610  0.44015357    -0.80000
O1061       O  0.26417714  0.71247438  0.55285003    -0.79900
O1062       O  0.28021124  0.77243656  0.56594394    -0.79900
O1063       O  0.28126649  0.72676534  0.44322485    -0.79900
C1064       C  0.27301842  0.70274777  0.43349057     1.09800
C1065       C  0.27774873  0.79855772  0.57222876     1.09700
C1066       C  0.28488978  0.80425029  0.42741757     1.09800
C1067       C  0.26731489  0.71543962  0.60594658     1.09700
O1068       O  0.21368586  0.69043078  0.53447342    -0.79900
O1069       O  0.20489783  0.79254456  0.43414283    -0.79900
O1070       O  0.22642279  0.73115848  0.38313241    -0.79900
O1071       O  0.22604763  0.78097369  0.61042146    -0.79900
O1072       O  0.19959422  0.79070444  0.54109460    -0.79900
O1073       O  0.19844797  0.72909420  0.45751006    -0.79900
O1074       O  0.20722420  0.73165712  0.57515960    -0.79800
O1075       O  0.23693939  0.78546658  0.36944632    -0.79900
Co1076     Co  0.23039406  0.72256657  0.50435852     1.51500
Co1077     Co  0.23069453  0.80109191  0.49205867     1.51700
Co1078     Co  0.25832601  0.75541434  0.41058348     1.51600
Co1079     Co  0.24534203  0.75131521  0.56555680     1.51500
O1080       O  0.24172857  0.76140119  0.48621866    -1.41800
C1081       C  0.20085563  0.70574368  0.56978477     1.09800
C1082       C  0.21285812  0.79437624  0.38445344     1.09800
C1083       C  0.20210619  0.72737673  0.40529849     1.09800
C1084       C  0.20395337  0.79143380  0.59229759     1.09800
C1085       C  0.08687327  0.92208011  0.18798504    -0.05900
C1086       C  0.05798456  0.91850488  0.18393591    -0.17000
C1087       C  0.04296723  0.93115690  0.14238092     0.11300
C1088       C  0.05654733  0.95081768  0.10730348    -0.05800
C1089       C  0.08463352  0.95746895  0.11678860    -0.17000
C1090       C  0.09968889  0.94439372  0.15821270     0.11400
S1091       S  0.00656621  0.92114657  0.13853170    -0.32000
S1092       S  0.13415974  0.95903096  0.17044703    -0.32000
H1093       H  0.14120523  0.94548319  0.21941185     0.29400
H1094       H  0.00887266  0.91296873  0.08182419     0.29400
H1095       H  0.04667066  0.90590482  0.21370519     0.20000
H1096       H  0.09485678  0.97370562  0.09290552     0.20000
C1097       C  0.15508381  0.85053251  0.31848753    -0.05900
C1098       C  0.18390857  0.85548017  0.31180551    -0.17000
C1099       C  0.20349843  0.83517028  0.32460383     0.11300
C1100       C  0.19420666  0.81029248  0.34936429    -0.05800
C1101       C  0.16544309  0.80683073  0.36149791    -0.17000
C1102       C  0.14639522  0.82792537  0.35124194     0.11400
S1103       S  0.24004027  0.84223089  0.31165972    -0.32000
S1104       S  0.11502141  0.82877279  0.39463913    -0.32000
H1105       H  0.10981769  0.85741396  0.38893970     0.29400
H1106       H  0.23674499  0.86708443  0.28186750     0.29400
H1107       H  0.19098030  0.87493715  0.29397732     0.20000
H1108       H  0.15844420  0.78935371  0.38649062     0.20000
C1109       C  0.14784459  0.66740049  0.68782921    -0.05900
C1110       C  0.14274746  0.66328761  0.63050553    -0.17000
C1111       C  0.16036655  0.67410616  0.59013571     0.11300
C1112       C  0.17981037  0.69441297  0.60689466    -0.05800
C1113       C  0.18004298  0.70391154  0.66277378    -0.17000
C1114       C  0.16391659  0.69087637  0.70371044     0.11400
S1115       S  0.15719694  0.65907334  0.52065515    -0.32000
S1116       S  0.16369072  0.70702101  0.77243834    -0.32000
H1117       H  0.13713463  0.69788043  0.78981662     0.29400
H1118       H  0.17259736  0.67852435  0.49030936     0.29400
H1119       H  0.12570716  0.65025064  0.61655399     0.20000
H1120       H  0.19366074  0.72095241  0.67511887     0.20000
C1121       C  0.07967515  0.59529615  0.82038908    -0.05900
C1122       C  0.05065863  0.59844105  0.81235717    -0.17000
C1123       C  0.03127036  0.58152011  0.83850801     0.11300
C1124       C  0.04076153  0.55766119  0.86491495    -0.05800
C1125       C  0.06930456  0.55156316  0.86608406    -0.17000
C1126       C  0.08904699  0.56977635  0.84364282     0.11400
S1127       S  0.99517728  0.59237026  0.83809647    -0.32000
S1128       S  0.12478120  0.55722233  0.84483265    -0.32000
H1129       H  0.13568943  0.57069500  0.79784494     0.29400
H1130       H  0.98869563  0.58402309  0.89290690     0.29400
H1131       H  0.04241124  0.61365098  0.78450148     0.20000
H1132       H  0.07632222  0.53274405  0.88626166     0.20000
C1133       C  0.40884473  0.60075983  0.18907431    -0.05900
C1134       C  0.41216140  0.60633443  0.13185054    -0.17000
C1135       C  0.43366007  0.59384474  0.10045641     0.11300
C1136       C  0.44916690  0.57215517  0.12438628    -0.05800
C1137       C  0.44906350  0.56999112  0.18259056    -0.17000
C1138       C  0.43117204  0.58664051  0.21544376     0.11400
S1139       S  0.44264133  0.60893672  0.03404258    -0.32000
S1140       S  0.44021629  0.59273911  0.28787913    -0.32000
H1141       H  0.46456651  0.57623976  0.28780802     0.29400
H1142       H  0.47153072  0.60371776  0.03819793     0.29400
H1143       H  0.39935614  0.62197930  0.11245221     0.20000
H1144       H  0.46328445  0.55569895  0.20222459     0.20000
C1145       C  0.29064665  0.68581520  0.39724889    -0.05900
C1146       C  0.28949002  0.69198611  0.34018199    -0.17000
C1147       C  0.31104344  0.68399915  0.30346775     0.11300
C1148       C  0.33209552  0.66605750  0.32286153    -0.05800
C1149       C  0.33528094  0.66369850  0.38095916    -0.17000
C1150       C  0.31467223  0.67304790  0.41825212     0.11400
S1151       S  0.31351552  0.70256631  0.23823206    -0.32000
S1152       S  0.32047412  0.66845347  0.49186582    -0.32000
H1153       H  0.31333628  0.69589579  0.50763033     0.29400
H1154       H  0.34234185  0.69857575  0.22934301     0.29400
H1155       H  0.27326068  0.70572988  0.32536805     0.20000
H1156       H  0.35378625  0.65400297  0.39755107     0.20000
C1157       C  0.29742842  0.81336171  0.60703231    -0.05900
C1158       C  0.31562899  0.83208286  0.58163502    -0.17000
C1159       C  0.33658536  0.84484371  0.61219423     0.11300
C1160       C  0.33481681  0.84421446  0.67136734    -0.05800
C1161       C  0.31785794  0.82378831  0.69627591    -0.17000
C1162       C  0.29876631  0.80859092  0.66480932     0.11400
S1163       S  0.36672474  0.85647041  0.57227259    -0.32000
S1164       S  0.27446618  0.78556239  0.69976039    -0.32000
H1165       H  0.28520949  0.78863029  0.75391294     0.29400
H1166       H  0.38626205  0.85625904  0.61508015     0.29400
H1167       H  0.31419606  0.83573188  0.53736625     0.20000
H1168       H  0.31939506  0.81981709  0.74043952     0.20000
C1169       C  0.39779660  0.91599957  0.81501959    -0.05900
C1170       C  0.38970773  0.94417387  0.81616893    -0.17000
C1171       C  0.40497543  0.96391859  0.84548023     0.11300
C1172       C  0.42859288  0.95512549  0.87427461    -0.05800
C1173       C  0.43345738  0.92681636  0.88233909    -0.17000
C1174       C  0.41661017  0.90698149  0.85644249     0.11400
S1175       S  0.39331847  0.49967618  0.84789271    -0.32000
S1176       S  0.41694914  0.87262658  0.88659553    -0.32000
H1177       H  0.38995176  0.86468835  0.87084631     0.29400
H1178       H  0.37411172  0.49747668  0.80405436     0.29400
H1179       H  0.37128859  0.95075583  0.79425880     0.20000
H1180       H  0.44959236  0.92028444  0.91070205     0.20000
C1181       C  0.42680563  0.56277947  0.88429112    -0.05900
C1182       C  0.41292859  0.58547627  0.90848809    -0.17000
C1183       C  0.40302268  0.60664857  0.87574712     0.11300
C1184       C  0.40207617  0.60212077  0.81709390    -0.05800
C1185       C  0.41934837  0.58152806  0.79299234    -0.17000
C1186       C  0.43154585  0.56148108  0.82582046     0.11400
S1187       S  0.39455508  0.63880029  0.91271938    -0.32000
S1188       S  0.44976644  0.53347743  0.78954617    -0.32000
H1189       H  0.47547378  0.53804423  0.81532087     0.29400
H1190       H  0.39048236  0.65626157  0.86741651     0.29400
H1191       H  0.41045634  0.58710746  0.95336822     0.20000
H1192       H  0.42343139  0.58091745  0.74845597     0.20000
C1193       C  0.32747912  0.66768410  0.68999784    -0.05900
C1194       C  0.30628453  0.65423601  0.65957381    -0.17000
C1195       C  0.28647397  0.66928745  0.63105367     0.11300
C1196       C  0.28737213  0.69848100  0.63405254    -0.05800
C1197       C  0.30617047  0.71197549  0.66907120    -0.17000
C1198       C  0.32466564  0.69684086  0.70059629     0.11400
S1199       S  0.25857664  0.65026175  0.59797626    -0.32000
S1200       S  0.33951159  0.71623781  0.75818828    -0.32000
H1201       H  0.34272873  0.69424921  0.79530683     0.29400
H1202       H  0.26406236  0.66100389  0.54457863     0.29400
H1203       H  0.30396453  0.63184971  0.66029738     0.20000
H1204       H  0.30527493  0.73443119  0.67444438     0.20000
C1205       C  0.04744609  0.94887220  0.89284982    -0.05900
C1206       C  0.06290741  0.92803457  0.91781244    -0.17000
C1207       C  0.07804762  0.90891585  0.88500411     0.11300
C1208       C  0.08055283  0.91323758  0.82619122    -0.05800
C1209       C  0.06136711  0.93130329  0.80188164    -0.17000
C1210       C  0.04540212  0.94969739  0.83430866     0.11400
S1211       S  0.08961032  0.87847266  0.92166445    -0.32000
S1212       S  0.02256097  0.97370493  0.79984020    -0.32000
H1213       H  0.03363882  0.96983197  0.74534946     0.29400
H1214       H  0.09338167  0.86040099  0.87584793     0.29400
H1215       H  0.06227111  0.92604213  0.96297370     0.20000
H1216       H  0.05823627  0.93063786  0.75732886     0.20000
C1217       C  0.15224814  0.84898535  0.67893028    -0.05900
C1218       C  0.14035635  0.82831887  0.64471694    -0.17000
C1219       C  0.15663289  0.80725818  0.62101840     0.11300
C1220       C  0.18580487  0.80843077  0.62711359    -0.05800
C1221       C  0.19814411  0.83142244  0.65327122    -0.17000
C1222       C  0.18174161  0.85272016  0.67608360     0.11400
S1223       S  0.13906180  0.77965462  0.58327266    -0.32000
S1224       S  0.20029700  0.88467471  0.69245593    -0.32000
H1225       H  0.17769792  0.90227395  0.70453604     0.29400
H1226       H  0.15861185  0.75885660  0.59579783     0.29400
H1227       H  0.11829225  0.82852789  0.63588607     0.20000
H1228       H  0.22072952  0.83393870  0.65162673     0.20000
C1229       C  0.30446466  0.81729115  0.38936343    -0.05900
C1230       C  0.29911136  0.81357648  0.33237697    -0.17000
C1231       C  0.31686797  0.82501270  0.29243865     0.11300
C1232       C  0.33706099  0.84441039  0.31086140    -0.05800
C1233       C  0.34625449  0.84227055  0.36614986    -0.17000
C1234       C  0.33123195  0.82655757  0.40453681     0.11400
S1235       S  0.31748557  0.80806399  0.22439298    -0.32000
S1236       S  0.35014818  0.81414163  0.46364855    -0.32000
H1237       H  0.33114039  0.79377564  0.48176144     0.29400
H1238       H  0.34536338  0.81480789  0.21085399     0.29400
H1239       H  0.28248512  0.79978222  0.31896232     0.20000
H1240       H  0.36578476  0.85186591  0.37858331     0.20000
C1241       C  0.41869122  0.96053695  0.10093386    -0.05900
C1242       C  0.41200562  0.93445048  0.07775891    -0.17000
C1243       C  0.40340598  0.91243818  0.11159689     0.11300
C1244       C  0.40087961  0.91710830  0.17043126    -0.05800
C1245       C  0.41273122  0.94138825  0.19264220    -0.17000
C1246       C  0.41877637  0.96399853  0.15929819     0.11400
S1247       S  0.39916529  0.87919118  0.07578282    -0.32000
S1248       S  0.42810817  0.99612428  0.19405855    -0.32000
H1249       H  0.41464323  0.01309744  0.15524636     0.29400
H1250       H  0.39075854  0.86238019  0.12010474     0.29400
H1251       H  0.41507058  0.93078970  0.03316424     0.20000
H1252       H  0.41792496  0.94275445  0.23615244     0.20000
C1253       C  0.17911164  0.71647393  0.37144065    -0.05900
C1254       C  0.18336500  0.71268324  0.31405052    -0.17000
C1255       C  0.16620997  0.69457960  0.28433773     0.11300
C1256       C  0.14968168  0.67477655  0.31485866    -0.05800
C1257       C  0.14223252  0.68213694  0.37024375    -0.17000
C1258       C  0.15487665  0.70491890  0.39648892     0.11400
S1259       S  0.16352629  0.70235015  0.21065149    -0.32000
S1260       S  0.13755717  0.72036199  0.45711591    -0.32000
H1261       H  0.14868021  0.74723501  0.44908515     0.29400
H1262       H  0.13622708  0.69248057  0.20339384     0.29400
H1263       H  0.19926500  0.72466028  0.29209955     0.20000
H1264       H  0.12519154  0.67144870  0.39146002     0.20000
C1265       C  0.08101979  0.59302835  0.20610647    -0.05900
C1266       C  0.09315713  0.57333352  0.16939201    -0.17000
C1267       C  0.07687728  0.55586350  0.13692978     0.11300
C1268       C  0.04785067  0.55526769  0.14671282    -0.05800
C1269       C  0.03581358  0.57109455  0.19000902    -0.17000
C1270       C  0.05216572  0.58945500  0.22133868     0.11400
S1271       S  0.09360311  0.53505183  0.08240663    -0.32000
S1272       S  0.03430137  0.60545990  0.28078287    -0.32000
H1273       H  0.05739214  0.61117914  0.31403531     0.29400
H1274       H  0.12043220  0.54702621  0.08598334     0.29400
H1275       H  0.11549150  0.57088867  0.16669573     0.20000
H1276       H  0.01356589  0.56936635  0.19896189     0.20000
C1277       C  0.60013081  0.11470013  0.23198494     0.30300
C1278       C  0.63344780  0.15131757  0.28744847     0.30300
C1279       C  0.62898350  0.12130744  0.20253641    -0.05900
C1280       C  0.58768722  0.14416405  0.24143308    -0.06700
C1281       C  0.60928237  0.10564588  0.29032768    -0.06600
C1282       C  0.64625773  0.13899649  0.23273217    -0.05900
C1283       C  0.60448702  0.16228167  0.27083283    -0.06700
C1284       C  0.62627519  0.12397211  0.31974610    -0.06600
C1285       C  0.67198013  0.13991665  0.20491838    -0.32000
N1286       N  0.67024922  0.12594772  0.15536823     0.14500
C1287       C  0.64404013  0.11460614  0.15339341    -0.32000
H1288       H  0.63642464  0.10294272  0.11772368     0.16500
C1289       C  0.59010646  0.18722807  0.27745979    -0.30900
N1290       N  0.56511215  0.18530801  0.25125577     0.13300
C1291       C  0.56364529  0.15906481  0.22838806    -0.30900
C1292       C  0.63416203  0.10944810  0.36751402    -0.31200
N1293       N  0.62199787  0.08338677  0.36734033     0.13800
H1294       H  0.64827480  0.11705592  0.39921336     0.16400
C1295       C  0.60685277  0.08125513  0.31999418    -0.31200
H1296       H  0.59502310  0.06300548  0.30747535     0.16400
H1297       H  0.54630685  0.15135552  0.20406203     0.16400
H1298       H  0.69043804  0.15094205  0.21875909     0.16500
H1299       H  0.59744023  0.20555697  0.29974594     0.16400
N1300       N  0.99252483  0.21549192  0.24808936    -0.36300
N1301       N  0.94989279  0.25883215  0.24938870    -0.56900
N1302       N  0.99456544  0.30169184  0.23840306    -0.36300
N1303       N  0.53712703  0.25844743  0.24745724    -0.56900
C1304       C  0.96944254  0.20089897  0.26493811     0.27300
C1305       C  0.51547040  0.20060521  0.26239540     0.27300
C1306       C  0.97151079  0.31742900  0.25048260     0.27200
C1307       C  0.51750875  0.31711448  0.25191816     0.27200
C1308       C  0.93344026  0.23593681  0.24150276     0.35900
C1309       C  0.93483026  0.28131660  0.23347477     0.35900
C1310       C  0.55250733  0.23509721  0.23669348     0.35900
C1311       C  0.55368950  0.28065243  0.23462138     0.35900
C1312       C  0.97792864  0.17672176  0.29080147    -0.21600
C1313       C  0.50683461  0.17667666  0.28952877    -0.21600
C1314       C  0.97989034  0.34295063  0.27238235    -0.21600
C1315       C  0.50875591  0.34271571  0.27352985    -0.21600
C1316       C  0.90797828  0.24390856  0.22012726    -0.22700
C1317       C  0.90890965  0.27248573  0.21472434    -0.22700
C1318       C  0.57876406  0.24259798  0.21623584    -0.22700
C1319       C  0.57954227  0.27132001  0.21517869    -0.22700
C1320       C  0.94096246  0.20806156  0.25483319    -0.18000
C1321       C  0.54393431  0.20728339  0.24911057    -0.18000
C1322       C  0.54610416  0.30920041  0.24283247    -0.18000
C1323       C  0.94317406  0.30981820  0.24016440    -0.18000
H1324       H  0.96469069  0.16084519  0.30920953     0.14900
H1325       H  0.52003914  0.16105074  0.30756999     0.14900
H1326       H  0.96661599  0.35995140  0.28679044     0.14900
H1327       H  0.52171585  0.35952477  0.28911207     0.14900
H1328       H  0.89064125  0.23056409  0.20879151     0.13200
H1329       H  0.89229831  0.28525102  0.19862935     0.13200
H1330       H  0.59568601  0.22887688  0.20320668     0.13200
H1331       H  0.59708576  0.28383021  0.20105318     0.13200
H1332       H  0.99269115  0.23306956  0.22299379     0.26400
H1333       H  0.99459605  0.28260424  0.21708636     0.26400
C1334       C  0.85204898  0.36452928  0.27355802     0.30300
C1335       C  0.88352194  0.39893675  0.20912379     0.30300
C1336       C  0.83864844  0.37287994  0.21758623    -0.05900
C1337       C  0.85812587  0.39334757  0.30055232    -0.06700
C1338       C  0.88122068  0.35376795  0.25701970    -0.06600
C1339       C  0.85489532  0.39032641  0.18468749    -0.05900
C1340       C  0.87402523  0.41133188  0.26790059    -0.06700
C1341       C  0.89749115  0.37097176  0.22428064    -0.06600
C1342       C  0.83936926  0.39660319  0.13783502    -0.32000
N1343       N  0.81423574  0.38327848  0.14088301     0.14500
C1344       C  0.81318046  0.36983451  0.19068419    -0.32000
H1345       H  0.79492866  0.35887191  0.20625529     0.12100
C1346       C  0.87495065  0.43644901  0.29860924    -0.30900
N1347       N  0.86156460  0.43366121  0.34902872     0.13300
C1348       C  0.85072104  0.40740488  0.34997889    -0.30900
C1349       C  0.92261859  0.35678701  0.21417287    -0.31200
N1350       N  0.92169897  0.33156430  0.24042729     0.13800
H1351       H  0.94005835  0.36415081  0.18889808     0.16400
C1352       C  0.89645738  0.33000345  0.26735843    -0.31200
H1353       H  0.88952073  0.31267494  0.29265438     0.16400
H1354       H  0.83803981  0.39923496  0.38394851     0.16400
H1355       H  0.84577109  0.41003183  0.10393690     0.16500
H1356       H  0.88390849  0.45600295  0.28551819     0.16400
N1357       N  0.62082411  0.00980085  0.42193126    -0.36300
N1358       N  0.62287115  0.05185127  0.51073718    -0.56900
N1359       N  0.61768198  0.00701660  0.59491223    -0.36300
N1360       N  0.62102085  0.46497275  0.50617565    -0.56900
C1361       C  0.62771686  0.03300815  0.39222697     0.27300
C1362       C  0.62662786  0.48692569  0.38931208     0.27300
C1363       C  0.62435663  0.02954295  0.62695107     0.27200
C1364       C  0.62381430  0.48389146  0.62461473     0.27200
C1365       C  0.61827252  0.06875785  0.46668479     0.35900
C1366       C  0.61594304  0.06678037  0.55752784     0.35900
C1367       C  0.61534954  0.44990710  0.45917145     0.35900
C1368       C  0.61421187  0.44862078  0.55049001     0.35900
C1369       C  0.63813424  0.02463331  0.34015487    -0.21600
C1370       C  0.63745708  0.49577276  0.33833213    -0.21600
C1371       C  0.63493820  0.02070642  0.67728391    -0.21600
C1372       C  0.63473460  0.49194769  0.67572191    -0.21600
C1373       C  0.60832960  0.09437121  0.48566477    -0.22700
C1374       C  0.60679676  0.09309490  0.54301762    -0.22700
C1375       C  0.60464342  0.42408325  0.47387331    -0.22700
C1376       C  0.60392584  0.42327867  0.53142086    -0.22700
C1377       C  0.62337708  0.06152580  0.40960021    -0.18000
C1378       C  0.62111997  0.45837114  0.40314470    -0.18000
C1379       C  0.61847819  0.45581539  0.60780360    -0.18000
C1380       C  0.61969163  0.05784824  0.61334464    -0.18000
H1381       H  0.64552699  0.03792628  0.30677715     0.14900
H1382       H  0.64426041  0.48281039  0.30328574     0.14900
H1383       H  0.64219749  0.03363768  0.71155672     0.14900
H1384       H  0.64196918  0.47856085  0.70854035     0.14900
H1385       H  0.60226612  0.11204656  0.46100450     0.13200
H1386       H  0.59950800  0.10966568  0.57075899     0.13200
H1387       H  0.59776669  0.40752667  0.44612735     0.13200
H1388       H  0.59638194  0.40603266  0.55621465     0.13200
H1389       H  0.61000776  0.00955839  0.46014998     0.26400
H1390       H  0.60683917  0.00754433  0.55759141     0.26400
N1391       N  0.86153156  0.00603000  0.41080977    -0.36300
N1392       N  0.86038351  0.05001723  0.49836631    -0.56900
N1393       N  0.86410416  0.00710966  0.58421643    -0.36300
N1394       N  0.85941950  0.46302268  0.49647574    -0.56900
C1395       C  0.85541221  0.02891927  0.38050777     0.27300
C1396       C  0.85450955  0.48316361  0.37981971     0.27300
C1397       C  0.85807791  0.03008194  0.61627943     0.27200
C1398       C  0.85841853  0.48418254  0.61531708     0.27200
C1399       C  0.86647488  0.06535085  0.45223660     0.35900
C1400       C  0.86700201  0.06603644  0.54372026     0.35900
C1401       C  0.86562843  0.44727952  0.45002812     0.35900
C1402       C  0.86762119  0.44810701  0.54130608     0.35900
C1403       C  0.84410063  0.02054008  0.33002087    -0.21600
C1404       C  0.84338470  0.49175231  0.32969537    -0.21600
C1405       C  0.84819683  0.02149492  0.66820997    -0.21600
C1406       C  0.84853362  0.49266788  0.66766938    -0.21600
C1407       C  0.87711402  0.09105009  0.46852535    -0.22700
C1408       C  0.87748263  0.09146333  0.52610985    -0.22700
C1409       C  0.87795780  0.42250448  0.46561299    -0.22700
C1410       C  0.87943099  0.42322422  0.52310822    -0.22700
C1411       C  0.86142978  0.05705989  0.39564760    -0.18000
C1412       C  0.86005180  0.45488589  0.39377854    -0.18000
C1413       C  0.86343781  0.45591113  0.59866113    -0.18000
C1414       C  0.86273565  0.05847741  0.60085712    -0.18000
H1415       H  0.83716387  0.03379031  0.29670068     0.14900
H1416       H  0.83574874  0.47866236  0.29601650     0.14900
H1417       H  0.84134697  0.03456432  0.70306413     0.14900
H1418       H  0.84213412  0.47949667  0.70200936     0.14900
H1419       H  0.88428255  0.10772618  0.44180192     0.13200
H1420       H  0.88510390  0.10846963  0.55188252     0.13200
H1421       H  0.88597452  0.40601323  0.43846766     0.13200
H1422       H  0.88919229  0.40776728  0.54868390     0.13200
H1423       H  0.87290102  0.00601725  0.44761151     0.26400
H1424       H  0.87425595  0.00701298  0.54527778     0.26400
C1425       C  0.60031179  0.39727219  0.78727817     0.30300
C1426       C  0.63333016  0.36547326  0.71826276     0.30300
C1427       C  0.62947590  0.38986172  0.81033793    -0.05900
C1428       C  0.58786400  0.36897624  0.76963774    -0.06700
C1429       C  0.60841521  0.41055462  0.72983237    -0.06600
C1430       C  0.64575099  0.37266763  0.77597839    -0.05900
C1431       C  0.60474828  0.35228571  0.73559152    -0.06700
C1432       C  0.62482707  0.39388201  0.69474176    -0.06600
C1433       C  0.66983393  0.36647511  0.80497687    -0.32000
N1434       N  0.66953272  0.38079282  0.85441104     0.14500
C1435       C  0.64512898  0.39547561  0.85767054    -0.32000
H1436       H  0.63916890  0.40910580  0.89229747     0.16500
C1437       C  0.59020228  0.32735126  0.72823222    -0.30900
N1438       N  0.56467937  0.32922751  0.75406982     0.13300
C1439       C  0.56314960  0.35463187  0.77994057    -0.30900
C1440       C  0.63020180  0.40851123  0.64608339    -0.31200
N1441       N  0.61773888  0.43401238  0.65013288     0.13800
H1442       H  0.64286814  0.40128062  0.61081136     0.16400
C1443       C  0.60477509  0.43553711  0.70148377    -0.31200
H1444       H  0.59378200  0.45382400  0.71713556     0.16400
H1445       H  0.54546858  0.36205581  0.80485469     0.16400
H1446       H  0.68645105  0.35251368  0.79133027     0.16500
H1447       H  0.59743253  0.30878007  0.70633440     0.16400
N1448       N  0.53496109  0.25703452  0.75035277    -0.36300
N1449       N  0.99211280  0.30014522  0.74524327    -0.56900
N1450       N  0.94901028  0.25677003  0.73319537    -0.36300
N1451       N  0.99171274  0.21380133  0.74820411    -0.56900
C1452       C  0.54982493  0.28004527  0.76511917     0.27300
C1453       C  0.54977683  0.23441469  0.76606965     0.27300
C1454       C  0.93371366  0.27995661  0.74628444     0.27200
C1455       C  0.93354687  0.23421587  0.74859971     0.27200
C1456       C  0.51546112  0.31571766  0.73651635     0.35900
C1457       C  0.97021022  0.31555034  0.72784932     0.35900
C1458       C  0.51498201  0.19782768  0.74119124     0.35900
C1459       C  0.96956883  0.19761491  0.73377869     0.35900
C1460       C  0.57423133  0.27190997  0.79085931    -0.21600
C1461       C  0.57424451  0.24314185  0.79128119    -0.21600
C1462       C  0.90850479  0.27199377  0.77080291    -0.21600
C1463       C  0.90857797  0.24324947  0.77267182    -0.21600
C1464       C  0.50837555  0.34090204  0.71284903    -0.22700
C1465       C  0.97974200  0.34077000  0.70725628    -0.22700
C1466       C  0.50757931  0.17152895  0.72171606    -0.22700
C1467       C  0.97888648  0.17140594  0.71695899    -0.22700
C1468       C  0.54287441  0.30804046  0.75235927    -0.18000
C1469       C  0.54261491  0.20612302  0.75523407    -0.18000
C1470       C  0.94101964  0.20568637  0.73993774    -0.18000
C1471       C  0.94165299  0.30804127  0.73521148    -0.18000
H1472       H  0.59048054  0.28528237  0.80733450     0.14900
H1473       H  0.59048815  0.23014419  0.80813298     0.14900
H1474       H  0.89206164  0.28546569  0.78719613     0.14900
H1475       H  0.89259461  0.23044021  0.79173439     0.14900
H1476       H  0.52233530  0.35761821  0.70063259     0.13200
H1477       H  0.96739024  0.35740391  0.69008588     0.13200
H1478       H  0.52136206  0.15418612  0.71182898     0.13200
H1479       H  0.96639447  0.15395208  0.70271344     0.13200
H1480       H  0.51732959  0.25668434  0.72537570     0.26400
H1481       H  0.96782349  0.25630625  0.71041403     0.26400
C1482       C  0.84827265  0.14967362  0.71927901     0.30300
C1483       C  0.88241990  0.11770624  0.78059476     0.30300
C1484       C  0.85614687  0.12086441  0.69192743    -0.05900
C1485       C  0.87769020  0.16219462  0.73046512    -0.06700
C1486       C  0.83665158  0.14135952  0.77728231    -0.06600
C1487       C  0.87330993  0.10419019  0.72388647    -0.05900
C1488       C  0.89467204  0.14589093  0.76261968    -0.06700
C1489       C  0.85372340  0.12469315  0.80816081    -0.06600
C1490       C  0.87667239  0.07904682  0.69430641    -0.32000
N1491       N  0.86326634  0.08031048  0.64452388     0.14500
C1492       C  0.85086121  0.10589721  0.64274606    -0.32000
H1493       H  0.83890358  0.11307798  0.60774649     0.16500
C1494       C  0.91983191  0.15986094  0.76928139    -0.30900
N1495       N  0.91911003  0.18429924  0.74096868     0.13300
C1496       C  0.89364204  0.18547150  0.71588543    -0.30900
C1497       C  0.83856933  0.11759995  0.85616199    -0.31200
N1498       N  0.81328377  0.13073370  0.85653479     0.13800
H1499       H  0.84535573  0.10373086  0.88856451     0.16400
C1500       C  0.81185461  0.14509677  0.80782819    -0.31200
H1501       H  0.79408627  0.15740495  0.79537573     0.16400
H1502       H  0.88714492  0.20217643  0.68905712     0.16400
H1503       H  0.88782433  0.06081461  0.70785654     0.16500
H1504       H  0.93724438  0.15281717  0.79378586     0.16400
N1505       N  0.74178801  0.37992669  0.08308533    -0.36300
N1506       N  0.78538206  0.38187404  0.99571258    -0.56900
N1507       N  0.74228701  0.37792401  0.91029050    -0.36300
N1508       N  0.69883658  0.38096413  0.99776809    -0.56900
C1509       C  0.76444421  0.38735260  0.11344970     0.27300
C1510       C  0.71856875  0.38642735  0.11411128     0.27300
C1511       C  0.76522930  0.38504817  0.87939908     0.27200
C1512       C  0.71942253  0.38522379  0.88088365     0.27200
C1513       C  0.80102192  0.37644220  0.04122332     0.35900
C1514       C  0.80132244  0.37516314  0.94983748     0.35900
C1515       C  0.68285308  0.37484151  0.04332799     0.35900
C1516       C  0.68332892  0.37430266  0.95261777     0.35900
C1517       C  0.75548108  0.39886168  0.16417167    -0.21600
C1518       C  0.72658912  0.39828535  0.16459272    -0.21600
C1519       C  0.75682637  0.39716208  0.83013267    -0.21600
C1520       C  0.72794684  0.39736622  0.83126587    -0.21600
C1521       C  0.82677081  0.36582934  0.02407659    -0.22700
C1522       C  0.82703589  0.36512902  0.96638629    -0.22700
C1523       C  0.65730706  0.36406873  0.02703796    -0.22700
C1524       C  0.65778262  0.36349030  0.96952106    -0.22700
C1525       C  0.79291249  0.38243899  0.09782239    -0.18000
C1526       C  0.69044269  0.38039586  0.09932175    -0.18000
C1527       C  0.69112650  0.37992528  0.89656520    -0.18000
C1528       C  0.79346471  0.37963625  0.89339688    -0.18000
H1529       H  0.76837574  0.40685163  0.19755115     0.14900
H1530       H  0.71307291  0.40577136  0.19835419     0.14900
H1531       H  0.77009004  0.40536108  0.79707173     0.14900
H1532       H  0.71469879  0.40597684  0.79970040     0.14900
H1533       H  0.84348680  0.35890795  0.05038169     0.13200
H1534       H  0.84415162  0.35782773  0.93981170     0.13200
H1535       H  0.64024383  0.35705485  0.05370735     0.13200
H1536       H  0.64148739  0.35550742  0.94301428     0.13200
H1537       H  0.74217152  0.36829316  0.04597821     0.26400
H1538       H  0.74225769  0.36614877  0.94660391     0.26400
N1539       N  0.74314130  0.12692759  0.09265227    -0.36300
N1540       N  0.69831076  0.12676471  0.00790720    -0.56900
N1541       N  0.74083916  0.13096372  0.91978356    -0.36300
N1542       N  0.78572233  0.12566998  0.00398120    -0.56900
C1543       C  0.72012208  0.12013337  0.12399413     0.27300
C1544       C  0.76633129  0.12002904  0.12199288     0.27300
C1545       C  0.71763313  0.12506793  0.88954185     0.27200
C1546       C  0.76361674  0.12463081  0.88726508     0.27200
C1547       C  0.68334907  0.13255726  0.05545683     0.35900
C1548       C  0.68221949  0.13455732  0.96439890     0.35900
C1549       C  0.80204087  0.13133945  0.04892024     0.35900
C1550       C  0.80038259  0.13388788  0.95782383     0.35900
C1551       C  0.72883431  0.10855303  0.17360817    -0.21600
C1552       C  0.75781516  0.10850239  0.17236399    -0.21600
C1553       C  0.72587917  0.11445899  0.83757920    -0.21600
C1554       C  0.75479779  0.11426965  0.83609469    -0.21600
C1555       C  0.65791483  0.14441206  0.04195596    -0.22700
C1556       C  0.65719377  0.14562726  0.98451580    -0.22700
C1557       C  0.82693483  0.14338749  0.03109415    -0.22700
C1558       C  0.82571662  0.14519722  0.97373352    -0.22700
C1559       C  0.69158300  0.12589990  0.11071682    -0.18000
C1560       C  0.79485676  0.12543251  0.10572278    -0.18000
C1561       C  0.79203597  0.12981848  0.90125696    -0.18000
C1562       C  0.68937639  0.13055962  0.90675488    -0.18000
H1563       H  0.71568639  0.10098852  0.20746975     0.14900
H1564       H  0.77108087  0.10082522  0.20499546     0.14900
H1565       H  0.71252120  0.10749445  0.80406206     0.14900
H1566       H  0.76781835  0.10728677  0.80115308     0.14900
H1567       H  0.64160565  0.15178571  0.07042797     0.13200
H1568       H  0.64027202  0.15407535  0.96048863     0.13200
H1569       H  0.84389146  0.15090039  0.05667838     0.13200
H1570       H  0.84128459  0.15463429  0.94680975     0.13200
H1571       H  0.74294840  0.13841285  0.05606069     0.26400
H1572       H  0.74124745  0.14156991  0.95805300     0.26400
C1573       C  0.88258140  0.39695373  0.77521316     0.30300
C1574       C  0.85085268  0.36393314  0.70867391     0.30300
C1575       C  0.85422232  0.38809984  0.80049112    -0.05900
C1576       C  0.87445631  0.40986916  0.71821118    -0.06700
C1577       C  0.89637721  0.36913335  0.75605795    -0.06600
C1578       C  0.83776420  0.37128593  0.76712411    -0.05900
C1579       C  0.85728528  0.39342056  0.68532903    -0.06700
C1580       C  0.87974770  0.35215705  0.72326977    -0.06600
C1581       C  0.81317331  0.36660048  0.79791908    -0.32000
N1582       N  0.81481946  0.37956679  0.84899476     0.14500
C1583       C  0.83982589  0.39307119  0.85037729    -0.32000
H1584       H  0.84701209  0.40578128  0.88505652     0.16500
C1585       C  0.85005967  0.40945811  0.63957181    -0.30900
N1586       N  0.86403637  0.43423567  0.64123635     0.13300
C1587       C  0.87906875  0.43459220  0.68921236    -0.30900
C1588       C  0.89461626  0.32793101  0.71136571    -0.31200
N1589       N  0.92025058  0.32976800  0.73515869     0.13800
H1590       H  0.88729622  0.31029009  0.68692110     0.16400
C1591       C  0.92169705  0.35523042  0.76115618    -0.31200
H1592       H  0.93990978  0.36294871  0.78267421     0.16400
H1593       H  0.89247863  0.45165059  0.70195198     0.16400
H1594       H  0.79511763  0.35489478  0.78422267     0.16500
H1595       H  0.83565068  0.40354778  0.60705820     0.16400
C1596       C  0.88647377  0.11651589  0.22190191     0.30300
C1597       C  0.85071000  0.14833957  0.28491659     0.30300
C1598       C  0.87580919  0.10291897  0.27684095    -0.05900
C1599       C  0.89761885  0.14525796  0.24038938    -0.06700
C1600       C  0.85811661  0.12367029  0.19326902    -0.06600
C1601       C  0.85767820  0.11922453  0.30892636    -0.05900
C1602       C  0.87974509  0.16153165  0.27257118    -0.06700
C1603       C  0.83973878  0.13964084  0.22629728    -0.06600
C1604       C  0.84912153  0.10321319  0.35429956    -0.32000
N1605       N  0.86231050  0.07812943  0.35205930     0.14500
C1606       C  0.87778763  0.07731525  0.30359854    -0.32000
H1607       H  0.89000881  0.05951656  0.28932908     0.16500
C1608       C  0.89369893  0.18676418  0.28230811    -0.30900
N1609       N  0.91953124  0.18605611  0.25641254     0.13300
C1610       C  0.92183697  0.16059478  0.23070584    -0.30900
C1611       C  0.81431246  0.14020025  0.19875001    -0.31200
N1612       N  0.81669336  0.12666435  0.14846256     0.13800
H1613       H  0.79507946  0.14945045  0.21457129     0.16400
C1614       C  0.84330252  0.11593207  0.14537368    -0.31200
H1615       H  0.85111225  0.10281140  0.11138362     0.16400
H1616       H  0.93974490  0.15379986  0.20571250     0.16400
H1617       H  0.83422524  0.10912656  0.38691119     0.16500
H1618       H  0.88542041  0.20442775  0.30590026     0.16400
C1619       C  0.63241169  0.14860416  0.72771035     0.30300
C1620       C  0.59890762  0.11584952  0.79174348     0.30300
C1621       C  0.64449271  0.14114449  0.78554541    -0.05900
C1622       C  0.60340085  0.16063422  0.74191124    -0.06700
C1623       C  0.62613301  0.11919235  0.70363799    -0.06600
C1624       C  0.62703040  0.12475819  0.81907719    -0.05900
C1625       C  0.58651186  0.14474479  0.77631218    -0.06700
C1626       C  0.60800691  0.10331292  0.73486918    -0.06600
C1627       C  0.64139926  0.12007564  0.86820203    -0.32000
N1628       N  0.66741757  0.13188293  0.86471741     0.14500
C1629       C  0.66941118  0.14454797  0.81400297    -0.32000
H1630       H  0.68791448  0.15515146  0.79850815     0.16500
C1631       C  0.56293165  0.16106263  0.78834412    -0.30900
N1632       N  0.56431094  0.18498501  0.75846691     0.13300
C1633       C  0.58923961  0.18500541  0.73031223    -0.30900
C1634       C  0.60358108  0.07855892  0.70550485    -0.31200
N1635       N  0.61956842  0.07869380  0.65793785     0.13800
H1636       H  0.58979020  0.06171831  0.71785610     0.16400
C1637       C  0.63424211  0.10292922  0.65767590    -0.31200
H1638       H  0.64940903  0.10835534  0.62546750     0.16400
H1639       H  0.59662668  0.20161459  0.70359695     0.16400
H1640       H  0.63372769  0.10821182  0.90345715     0.16500
H1641       H  0.54590504  0.15623409  0.81705071     0.16400
C1642       C  0.63525970  0.36780213  0.28465990     0.30300
C1643       C  0.60304367  0.40153832  0.22215655     0.30300
C1644       C  0.64707524  0.37472536  0.22561963    -0.05900
C1645       C  0.60609249  0.35550623  0.26954673    -0.06700
C1646       C  0.62848457  0.39673409  0.31077697    -0.06600
C1647       C  0.63073087  0.39193355  0.19401842    -0.05900
C1648       C  0.58953657  0.37270586  0.23721665    -0.06700
C1649       C  0.61154811  0.41351814  0.27948027    -0.06600
C1650       C  0.64428622  0.39490126  0.14256829    -0.32000
N1651       N  0.66880129  0.38053791  0.14277154     0.14500
C1652       C  0.67018428  0.36738153  0.19249693    -0.32000
H1653       H  0.68696525  0.35341397  0.20318990     0.16500
C1654       C  0.56668357  0.35645424  0.22079816    -0.30900
N1655       N  0.56791381  0.33080185  0.24444376     0.13300
C1656       C  0.59255065  0.32972254  0.27211818    -0.30900
C1657       C  0.60709116  0.43809317  0.30980635    -0.31200
N1658       N  0.62133961  0.43702956  0.35865525     0.13800
H1659       H  0.59433661  0.45547398  0.29713107     0.16400
C1660       C  0.63459842  0.41173368  0.35929047    -0.31200
H1661       H  0.64751784  0.40455851  0.39294176     0.16400
H1662       H  0.60032359  0.31109662  0.29137777     0.16400
H1663       H  0.63706289  0.40687573  0.10761929     0.16500
H1664       H  0.55060915  0.36216257  0.19185288     0.16400
O1665       O  0.52049998  0.01588767  0.12434787    -0.79900
O1666       O  0.96330259  0.03473605  0.91509554    -0.79900
O1667       O  0.52187630  0.04840419  0.95103027    -0.79900
O1668       O  0.96250766  0.05181313  0.03768806    -0.79800
O1669       O  0.51295298  0.01832887  0.88518655    -0.80000
O1670       O  0.96625253  0.02579342  0.11295835    -0.79900
O1671       O  0.92323542  0.03390882  0.96292648    -0.79900
O1672       O  0.52825192  0.04751162  0.06041459    -0.79900
C1673       C  0.53019977  0.03933464  0.10973001     1.09800
C1674       C  0.93780720  0.04239846  0.92179746     1.09700
C1675       C  0.52286982  0.04151035  0.90060705     1.09800
C1676       C  0.96118045  0.04927829  0.09015022     1.09700
O1677       O  0.96111767  0.46935801  0.05828253    -0.79900
O1678       O  0.50715538  0.46527008  0.93874241    -0.79900
O1679       O  0.55126243  0.49166362  0.05304904    -0.79900
O1680       O  0.94464585  0.48244661  0.94956806    -0.79900
O1681       O  0.96769325  0.48432408  0.86809101    -0.79900
O1682       O  0.51551444  0.46380218  0.06270816    -0.79900
O1683       O  0.93102324  0.50238234  0.05331662    -0.79800
O1684       O  0.54523528  0.49155720  0.94174144    -0.79900
Co1685     Co  0.99054889  0.99349777  0.08630412     1.51500
Co1686     Co  0.98450726  0.99872612  0.93279519     1.51700
Co1687     Co  0.53480631  0.01998759  0.00142983     1.51600
Co1688     Co  0.95579464  0.01846679  0.99328137     1.51500
O1689       O  0.99502120  0.00816765  0.01022561    -1.41800
C1690       C  0.93693543  0.47802657  0.06775676     1.09800
C1691       C  0.53282864  0.46898160  0.92817706     1.09800
C1692       C  0.54086234  0.46873888  0.06976360     1.09800
C1693       C  0.94769379  0.47507049  0.89786440     1.09800
O1694       O  0.74818518  0.19693632  0.44672632    -0.79900
O1695       O  0.75708820  0.31190480  0.55297755    -0.79900
O1696       O  0.78853458  0.27890653  0.43415590    -0.79900
O1697       O  0.75445230  0.23442563  0.63310312    -0.79800
O1698       O  0.76144843  0.31562605  0.44015255    -0.80000
O1699       O  0.76417777  0.21247449  0.55284843    -0.79900
O1700       O  0.78021217  0.27243694  0.56594183    -0.79900
O1701       O  0.78126621  0.22676502  0.44322448    -0.79900
C1702       C  0.77301794  0.20274758  0.43348955     1.09800
C1703       C  0.77774939  0.29855800  0.57222755     1.09700
C1704       C  0.78489036  0.30425005  0.42741633     1.09800
C1705       C  0.76731623  0.21543988  0.60594475     1.09700
O1706       O  0.71368620  0.19043099  0.53447375    -0.79900
O1707       O  0.70489824  0.29254547  0.43414148    -0.79900
O1708       O  0.72642249  0.23115869  0.38313262    -0.79900
O1709       O  0.72604851  0.28097388  0.61042035    -0.79900
O1710       O  0.69959482  0.29070500  0.54109378    -0.79900
O1711       O  0.69844784  0.22909450  0.45751064    -0.79900
O1712       O  0.70722544  0.23165722  0.57516079    -0.79800
O1713       O  0.73693987  0.28546651  0.36944534    -0.79900
Co1714     Co  0.73039423  0.22256674  0.50435817     1.51500
Co1715     Co  0.73069509  0.30109227  0.49205765     1.51700
Co1716     Co  0.75832611  0.25541423  0.41058290     1.51600
Co1717     Co  0.74534307  0.25131546  0.56555588     1.51500
O1718       O  0.74172874  0.26140136  0.48621790    -1.41800
C1719       C  0.70085657  0.20574385  0.56978599     1.09800
C1720       C  0.71285863  0.29437645  0.38445195     1.09800
C1721       C  0.70210592  0.22737706  0.40529901     1.09800
C1722       C  0.70395409  0.29143390  0.59229679     1.09800
C1723       C  0.58687418  0.42208153  0.18798480    -0.05900
C1724       C  0.55798530  0.41850722  0.18393805    -0.17000
C1725       C  0.54296737  0.43116042  0.14238537     0.11300
C1726       C  0.55654762  0.45082012  0.10730573    -0.05800
C1727       C  0.58463417  0.45747065  0.11678889    -0.17000
C1728       C  0.59968978  0.44439511  0.15821234     0.11400
S1729       S  0.50656511  0.42115382  0.13854346    -0.32000
S1730       S  0.63416069  0.45903216  0.17044661    -0.32000
H1731       H  0.64120563  0.44548448  0.21941191     0.29400
H1732       H  0.50886911  0.41297177  0.08183798     0.29400
H1733       H  0.54667172  0.40590717  0.21370788     0.20000
H1734       H  0.59485743  0.47370712  0.09290514     0.20000
C1735       C  0.65508431  0.35053211  0.31848465    -0.05900
C1736       C  0.68390910  0.35548003  0.31180359    -0.17000
C1737       C  0.70349906  0.33517023  0.32460196     0.11300
C1738       C  0.69420735  0.31029223  0.34936166    -0.05800
C1739       C  0.66544372  0.30683001  0.36149395    -0.17000
C1740       C  0.64639569  0.32792454  0.35123795     0.11400
S1741       S  0.74004095  0.34223122  0.31165894    -0.32000
S1742       S  0.61502179  0.32877147  0.39463487    -0.32000
H1743       H  0.60981856  0.35741286  0.38893779     0.29400
H1744       H  0.73674550  0.36708398  0.28186419     0.29400
H1745       H  0.69098084  0.37493723  0.29397638     0.20000
H1746       H  0.65844490  0.28935279  0.38648619     0.20000
C1747       C  0.64784473  0.16740145  0.68783070    -0.05900
C1748       C  0.64274741  0.16328906  0.63050705    -0.17000
C1749       C  0.66036691  0.17410711  0.59013735     0.11300
C1750       C  0.67981140  0.19441325  0.60689639    -0.05800
C1751       C  0.68004447  0.20391148  0.66277573    -0.17000
C1752       C  0.66391764  0.19087665  0.70371226     0.11400
S1753       S  0.65719700  0.15907435  0.52065680    -0.32000
S1754       S  0.66369204  0.20702121  0.77244019    -0.32000
H1755       H  0.63713591  0.19788074  0.78981850     0.29400
H1756       H  0.67259706  0.17852559  0.49031091     0.29400
H1757       H  0.62570673  0.15025262  0.61655541     0.20000
H1758       H  0.69366279  0.22095187  0.67512098     0.20000
C1759       C  0.57967569  0.09529582  0.82038928    -0.05900
C1760       C  0.55065917  0.09844057  0.81235755    -0.17000
C1761       C  0.53127105  0.08151947  0.83850839     0.11300
C1762       C  0.54076233  0.05766063  0.86491539    -0.05800
C1763       C  0.56930539  0.05156278  0.86608441    -0.17000
C1764       C  0.58904768  0.06977603  0.84364280     0.11400
S1765       S  0.49517797  0.09236941  0.83809689    -0.32000
S1766       S  0.62478191  0.05722208  0.84483172    -0.32000
H1767       H  0.63568935  0.07069425  0.79784269     0.29400
H1768       H  0.48869664  0.08402279  0.89290781     0.29400
H1769       H  0.54241168  0.11365059  0.78450214     0.20000
H1770       H  0.57632315  0.03274372  0.88626203     0.20000
C1771       C  0.90884444  0.10075945  0.18907363    -0.05900
C1772       C  0.91216071  0.10633365  0.13184958    -0.17000
C1773       C  0.93365937  0.09384396  0.10045532     0.11300
C1774       C  0.94916654  0.07215471  0.12438544    -0.05800
C1775       C  0.94906333  0.06999093  0.18258973    -0.17000
C1776       C  0.93117196  0.08664040  0.21544288     0.11400
S1777       S  0.94264020  0.10893564  0.03404097    -0.32000
S1778       S  0.94021636  0.09273906  0.28787818    -0.32000
H1779       H  0.96456878  0.07624286  0.28780469     0.29400
H1780       H  0.97152969  0.10371726  0.03819625     0.29400
H1781       H  0.89935527  0.12197831  0.11245109     0.20000
H1782       H  0.96328434  0.05569887  0.20222390     0.20000
C1783       C  0.79064609  0.18581502  0.39724770    -0.05900
C1784       C  0.78949075  0.19198698  0.34018115    -0.17000
C1785       C  0.81104447  0.18399966  0.30346783     0.11300
C1786       C  0.83209569  0.16605710  0.32286213    -0.05800
C1787       C  0.83528003  0.16369733  0.38095982    -0.17000
C1788       C  0.81467083  0.17304662  0.41825173     0.11400
S1789       S  0.81351765  0.20256693  0.23823235    -0.32000
S1790       S  0.82047115  0.16845131  0.49186551    -0.32000
H1791       H  0.81333842  0.19589527  0.50762789     0.29400
H1792       H  0.84234356  0.19857427  0.22934183     0.29400
H1793       H  0.77326215  0.20573153  0.32536696     0.20000
H1794       H  0.85378494  0.15400146  0.39755263     0.20000
C1795       C  0.79742907  0.31336192  0.60703116    -0.05900
C1796       C  0.81562957  0.33208303  0.58163366    -0.17000
C1797       C  0.83658595  0.34484399  0.61219260     0.11300
C1798       C  0.83481759  0.34421466  0.67136569    -0.05800
C1799       C  0.81785887  0.32378843  0.69627445    -0.17000
C1800       C  0.79876718  0.30859102  0.66480810     0.11400
S1801       S  0.86672505  0.35647096  0.57227051    -0.32000
S1802       S  0.77446713  0.28556252  0.69975952    -0.32000
H1803       H  0.78521360  0.28862682  0.75391019     0.29400
H1804       H  0.88626252  0.35626036  0.61507782     0.29400
H1805       H  0.81419642  0.33573207  0.53736494     0.20000
H1806       H  0.81939610  0.31981719  0.74043803     0.20000
C1807       C  0.89779771  0.41599954  0.81501760    -0.05900
C1808       C  0.88970865  0.44417378  0.81616765    -0.17000
C1809       C  0.90497590  0.46391835  0.84548022     0.11300
C1810       C  0.92859316  0.45512526  0.87427510    -0.05800
C1811       C  0.93345806  0.42681611  0.88233833    -0.17000
C1812       C  0.91661117  0.40698129  0.85644067     0.11400
S1813       S  0.89331871  0.99967665  0.84789151    -0.32000
S1814       S  0.91695069  0.37262606  0.88659223    -0.32000
H1815       H  0.88995348  0.36468749  0.87084259     0.29400
H1816       H  0.87410563  0.99747562  0.80406459     0.29400
H1817       H  0.87128950  0.45075584  0.79425764     0.20000
H1818       H  0.94959310  0.42028410  0.91070108     0.20000
C1819       C  0.92680583  0.06277934  0.88429042    -0.05900
C1820       C  0.91292840  0.08547591  0.90848733    -0.17000
C1821       C  0.90302296  0.10664848  0.87574654     0.11300
C1822       C  0.90207672  0.10212089  0.81709334    -0.05800
C1823       C  0.91934903  0.08152828  0.79299173    -0.17000
C1824       C  0.93154647  0.06148124  0.82581982     0.11400
S1825       S  0.89455541  0.13880018  0.91271900    -0.32000
S1826       S  0.94976718  0.03347775  0.78954530    -0.32000
H1827       H  0.97547402  0.03804326  0.81532272     0.29400
H1828       H  0.89048322  0.15626169  0.86741628     0.29400
H1829       H  0.91045553  0.08710675  0.95336733     0.20000
H1830       H  0.92343205  0.08091774  0.74845534     0.20000
C1831       C  0.82747973  0.16768403  0.68999711    -0.05900
C1832       C  0.80628509  0.15423603  0.65957308    -0.17000
C1833       C  0.78647489  0.16928755  0.63105212     0.11300
C1834       C  0.78737363  0.19848113  0.63404992    -0.05800
C1835       C  0.80617218  0.21197558  0.66906822    -0.17000
C1836       C  0.82466671  0.19684089  0.70059451     0.11400
S1837       S  0.75857713  0.15026193  0.59797585    -0.32000
S1838       S  0.83951210  0.21623790  0.75818703    -0.32000
H1839       H  0.84272814  0.19424941  0.79530622     0.29400
H1840       H  0.76406166  0.16100441  0.54457812     0.29400
H1841       H  0.80396467  0.13184977  0.66029746     0.20000
H1842       H  0.80527701  0.23443134  0.67444080     0.20000
C1843       C  0.54744823  0.44887375  0.89285035    -0.05900
C1844       C  0.56290903  0.42803580  0.91781327    -0.17000
C1845       C  0.57804863  0.40891645  0.88500521     0.11300
C1846       C  0.58055369  0.41323770  0.82619216    -0.05800
C1847       C  0.56136839  0.43130375  0.80188242    -0.17000
C1848       C  0.54540412  0.44969858  0.83430914     0.11400
S1849       S  0.58961082  0.37847324  0.92166614    -0.32000
S1850       S  0.52256355  0.47370654  0.79984024    -0.32000
H1851       H  0.53363979  0.46983158  0.74534875     0.29400
H1852       H  0.59338216  0.36040130  0.87585007     0.29400
H1853       H  0.56227264  0.42604352  0.96297456     0.20000
H1854       H  0.55823728  0.43063798  0.75732974     0.20000
C1855       C  0.65224829  0.34898394  0.67893238    -0.05900
C1856       C  0.64035657  0.32831717  0.64471955    -0.17000
C1857       C  0.65663337  0.30725705  0.62101954     0.11300
C1858       C  0.68580541  0.30843027  0.62711358    -0.05800
C1859       C  0.69814440  0.33142204  0.65327126    -0.17000
C1860       C  0.68174169  0.35271934  0.67608453     0.11400
S1861       S  0.63906254  0.27965354  0.58327312    -0.32000
S1862       S  0.70029685  0.38467400  0.69245704    -0.32000
H1863       H  0.67769781  0.40227322  0.70453744     0.29400
H1864       H  0.65861325  0.25885582  0.59579621     0.29400
H1865       H  0.61829237  0.32852569  0.63588960     0.20000
H1866       H  0.72072976  0.33393874  0.65162604     0.20000
C1867       C  0.80446519  0.31729089  0.38936205    -0.05900
C1868       C  0.79911200  0.31357608  0.33237560    -0.17000
C1869       C  0.81686824  0.32501287  0.29243728     0.11300
C1870       C  0.83706071  0.34441114  0.31086020    -0.05800
C1871       C  0.84625420  0.34227159  0.36614875    -0.17000
C1872       C  0.83123209  0.32655818  0.40453563     0.11400
S1873       S  0.81748568  0.30806476  0.22439099    -0.32000
S1874       S  0.85014868  0.31414259  0.46364718    -0.32000
H1875       H  0.83114119  0.29377627  0.48175994     0.29400
H1876       H  0.84536338  0.31480899  0.21085176     0.29400
H1877       H  0.78248597  0.29978157  0.31896093     0.20000
H1878       H  0.86578422  0.35186743  0.37858228     0.20000
C1879       C  0.91869173  0.46053768  0.10093463    -0.05900
C1880       C  0.91200531  0.43445164  0.07775894    -0.17000
C1881       C  0.90340570  0.41243919  0.11159639     0.11300
C1882       C  0.90087967  0.41710890  0.17043093    -0.05800
C1883       C  0.91273179  0.44138842  0.19264258    -0.17000
C1884       C  0.91877767  0.46399868  0.15929909     0.11400
S1885       S  0.89916455  0.37919255  0.07578125    -0.32000
S1886       S  0.92811114  0.49612366  0.19406025    -0.32000
H1887       H  0.91464540  0.51309751  0.15525038     0.29400
H1888       H  0.89075939  0.36238099  0.12010341     0.29400
H1889       H  0.91506976  0.43079123  0.03316404     0.20000
H1890       H  0.91792510  0.44275437  0.23615314     0.20000
C1891       C  0.67911131  0.21647433  0.37144128    -0.05900
C1892       C  0.68336481  0.21268360  0.31405119    -0.17000
C1893       C  0.66620969  0.19458022  0.28433814     0.11300
C1894       C  0.64968111  0.17477730  0.31485875    -0.05800
C1895       C  0.64223191  0.18213760  0.37024391    -0.17000
C1896       C  0.65487620  0.20491941  0.39648939     0.11400
S1897       S  0.66352635  0.20235092  0.21065191    -0.32000
S1898       S  0.63755666  0.22036256  0.45711629    -0.32000
H1899       H  0.64868023  0.24723543  0.44908637     0.29400
H1900       H  0.63622714  0.19248144  0.20339373     0.29400
H1901       H  0.69926499  0.22466047  0.29210038     0.20000
H1902       H  0.62519081  0.17144944  0.39145997     0.20000
C1903       C  0.58101901  0.09302921  0.20610645    -0.05900
C1904       C  0.59315690  0.07333326  0.16939522    -0.17000
C1905       C  0.57687758  0.05586195  0.13693455     0.11300
C1906       C  0.54785073  0.05526681  0.14671483    -0.05800
C1907       C  0.53581291  0.07109515  0.19000817    -0.17000
C1908       C  0.55216473  0.08945617  0.22133737     0.11400
S1909       S  0.59360436  0.03504772  0.08241664    -0.32000
S1910       S  0.53430000  0.10546172  0.28078030    -0.32000
H1911       H  0.55739064  0.11117832  0.31403494     0.29400
H1912       H  0.62043323  0.04702266  0.08599230     0.29400
H1913       H  0.61549137  0.07088867  0.16670027     0.20000
H1914       H  0.51356505  0.06936748  0.19895947     0.20000
C1915       C  0.60013166  0.61469910  0.23198519     0.30300
C1916       C  0.63344847  0.65131662  0.28744878     0.30300
C1917       C  0.62898434  0.62130646  0.20253671    -0.05900
C1918       C  0.58768793  0.64416303  0.24143320    -0.06700
C1919       C  0.60928318  0.60564485  0.29032804    -0.06600
C1920       C  0.64625853  0.63899548  0.23273257    -0.05900
C1921       C  0.60448768  0.66228064  0.27083301    -0.06700
C1922       C  0.62627581  0.62397117  0.31974665    -0.06600
C1923       C  0.67198086  0.63991590  0.20491847    -0.32000
N1924       N  0.67024986  0.62594715  0.15536812     0.14500
C1925       C  0.64404082  0.61460558  0.15339330    -0.32000
H1926       H  0.63642523  0.60294264  0.11772305     0.16500
C1927       C  0.59010683  0.68722683  0.27746097    -0.30900
N1928       N  0.56511236  0.68530673  0.25125754     0.13300
C1929       C  0.56364564  0.65906363  0.22838928    -0.30900
C1930       C  0.63416199  0.60944741  0.36751544    -0.31200
N1931       N  0.62199786  0.58338604  0.36734178     0.13800
H1932       H  0.64827441  0.61705537  0.39921525     0.16400
C1933       C  0.60685318  0.58125425  0.31999505    -0.31200
H1934       H  0.59502350  0.56300461  0.30747615     0.16400
H1935       H  0.54630705  0.65135425  0.20406380     0.16400
H1936       H  0.69043873  0.65094143  0.21875903     0.16500
H1937       H  0.59744050  0.70555562  0.29974760     0.16400
N1938       N  0.99252513  0.71549129  0.24809172    -0.36300
N1939       N  0.94989311  0.75883194  0.24939074    -0.56900
N1940       N  0.99456577  0.80169110  0.23840616    -0.36300
N1941       N  0.53712735  0.75844631  0.24746050    -0.56900
C1942       C  0.96944260  0.70089850  0.26493989     0.27300
C1943       C  0.51547049  0.70060417  0.26239736     0.27300
C1944       C  0.97151123  0.81742834  0.25048596     0.27200
C1945       C  0.51750913  0.81711339  0.25192221     0.27200
C1946       C  0.93344074  0.73593667  0.24150327     0.35900
C1947       C  0.93483083  0.78131640  0.23347623     0.35900
C1948       C  0.55250764  0.73509611  0.23669642     0.35900
C1949       C  0.55368983  0.78065134  0.23462492     0.35900
C1950       C  0.97792834  0.67672092  0.29080238    -0.21600
C1951       C  0.50683436  0.67667540  0.28952959    -0.21600
C1952       C  0.97989083  0.84294968  0.27238688    -0.21600
C1953       C  0.50875642  0.84271451  0.27353480    -0.21600
C1954       C  0.90797913  0.74390847  0.22012603    -0.22700
C1955       C  0.90891058  0.77248566  0.21472380    -0.22700
C1956       C  0.57876440  0.74259696  0.21623891    -0.22700
C1957       C  0.57954262  0.77131900  0.21518228    -0.22700
C1958       C  0.94096265  0.70806146  0.25483429    -0.18000
C1959       C  0.54393453  0.70728221  0.24911289    -0.18000
C1960       C  0.54610447  0.80919928  0.24283615    -0.18000
C1961       C  0.94317457  0.80981787  0.24016685    -0.18000
H1962       H  0.96469017  0.66084432  0.30920967     0.14900
H1963       H  0.52003867  0.66104900  0.30756980     0.14900
H1964       H  0.96661653  0.85995043  0.28679523     0.14900
H1965       H  0.52171646  0.85952337  0.28911760     0.14900
H1966       H  0.89064228  0.73056406  0.20878890     0.13200
H1967       H  0.89229954  0.78525107  0.19862795     0.13200
H1968       H  0.59568635  0.72887594  0.20320940     0.13200
H1969       H  0.59708614  0.78382928  0.20105717     0.13200
H1970       H  0.99269166  0.73306905  0.22299702     0.26400
H1971       H  0.99459637  0.78260363  0.21708833     0.26400
C1972       C  0.85204926  0.86452850  0.27355924     0.30300
C1973       C  0.88352206  0.89893600  0.20912457     0.30300
C1974       C  0.83864851  0.87287920  0.21758755    -0.05900
C1975       C  0.85812635  0.89334672  0.30055362    -0.06700
C1976       C  0.88122093  0.85376722  0.25702070    -0.06600
C1977       C  0.85489530  0.89032564  0.18468855    -0.05900
C1978       C  0.87402559  0.91133104  0.26790160    -0.06700
C1979       C  0.89749136  0.87097105  0.22428154    -0.06600
C1980       C  0.83936908  0.89660228  0.13783605    -0.32000
N1981       N  0.81423548  0.88327762  0.14088435     0.14500
C1982       C  0.81318040  0.86983376  0.19068572    -0.32000
H1983       H  0.79492866  0.85887114  0.20625705     0.12100
C1984       C  0.87495171  0.93644791  0.29861086    -0.30900
N1985       N  0.86156620  0.93365999  0.34903081     0.13300
C1986       C  0.85072237  0.90740377  0.34998104    -0.30900
C1987       C  0.92261904  0.85678655  0.21417477    -0.31200
N1988       N  0.92169952  0.83156395  0.24042960     0.13800
H1989       H  0.94005892  0.86415041  0.18890044     0.16400
C1990       C  0.89645782  0.83000293  0.26736015    -0.31200
H1991       H  0.88952124  0.81267440  0.29265611     0.16400
H1992       H  0.83804150  0.89923379  0.38395116     0.16400
H1993       H  0.84577092  0.91003073  0.10393762     0.16500
H1994       H  0.88390956  0.95600185  0.28552002     0.16400
N1995       N  0.62082472  0.50980000  0.42193246    -0.36300
N1996       N  0.62287202  0.55185025  0.51073851    -0.56900
N1997       N  0.61768364  0.50701533  0.59491342    -0.36300
N1998       N  0.62101918  0.96497390  0.50617479    -0.56900
C1999       C  0.62771730  0.53300742  0.39222835     0.27300
C2000       C  0.62662705  0.98692641  0.38931106     0.27300
C2001       C  0.62435804  0.52954167  0.62695247     0.27200
C2002       C  0.62381282  0.98389277  0.62461349     0.27200
C2003       C  0.61827276  0.56875685  0.46668637     0.35900
C2004       C  0.61594376  0.56677907  0.55752947     0.35900
C2005       C  0.61534806  0.94990813  0.45917069     0.35900
C2006       C  0.61421003  0.94862207  0.55048926     0.35900
C2007       C  0.63813485  0.52463279  0.34015628    -0.21600
C2008       C  0.63745629  0.99577327  0.33833100    -0.21600
C2009       C  0.63493931  0.52070512  0.67728553    -0.21600
C2010       C  0.63473347  0.99194901  0.67572028    -0.21600
C2011       C  0.60832924  0.59436990  0.48566677    -0.22700
C2012       C  0.60679669  0.59309338  0.54301967    -0.22700
C2013       C  0.60464175  0.92408439  0.47387270    -0.22700
C2014       C  0.60392397  0.92327995  0.53142027    -0.22700
C2015       C  0.62337721  0.56152501  0.40960165    -0.18000
C2016       C  0.62111900  0.95837191  0.40314396    -0.18000
C2017       C  0.61847661  0.95581669  0.60780274    -0.18000
C2018       C  0.61969277  0.55784693  0.61334619    -0.18000
H2019       H  0.64552757  0.53792591  0.30677879     0.14900
H2020       H  0.64425950  0.98281076  0.30328474     0.14900
H2021       H  0.64219824  0.53363642  0.71155860     0.14900
H2022       H  0.64196834  0.97856212  0.70853840     0.14900
H2023       H  0.60226517  0.61204512  0.46100668     0.13200
H2024       H  0.59950760  0.60966386  0.57076143     0.13200
H2025       H  0.59776521  0.90752771  0.44612681     0.13200
H2026       H  0.59638012  0.90603396  0.55621417     0.13200
H2027       H  0.61000829  0.50955729  0.46015114     0.26400
H2028       H  0.60684100  0.50754309  0.55759239     0.26400
N2029       N  0.86152992  0.50603087  0.41080888    -0.36300
N2030       N  0.86038344  0.55001788  0.49836591    -0.56900
N2031       N  0.86410421  0.50711014  0.58421544    -0.36300
N2032       N  0.85942109  0.96302195  0.49647714    -0.56900
C2033       C  0.85541081  0.52892031  0.38050742     0.27300
C2034       C  0.85451139  0.98316253  0.37982094     0.27300
C2035       C  0.85807795  0.53008237  0.61627847     0.27200
C2036       C  0.85841868  0.98418207  0.61531836     0.27200
C2037       C  0.86647478  0.56535150  0.45223621     0.35900
C2038       C  0.86700221  0.56603698  0.54371982     0.35900
C2039       C  0.86563039  0.94727873  0.45002988     0.35900
C2040       C  0.86762246  0.94810643  0.54130788     0.35900
C2041       C  0.84409897  0.52054143  0.33002046    -0.21600
C2042       C  0.84338657  0.99175096  0.32969641    -0.21600
C2043       C  0.84819662  0.52149530  0.66820879    -0.21600
C2044       C  0.84853384  0.99266747  0.66767068    -0.21600
C2045       C  0.87711423  0.59105063  0.46852490    -0.22700
C2046       C  0.87748301  0.59146383  0.52610944    -0.22700
C2047       C  0.87795979  0.92250378  0.46561530    -0.22700
C2048       C  0.87943255  0.92322366  0.52311063    -0.22700
C2049       C  0.86142913  0.55706072  0.39564736    -0.18000
C2050       C  0.86005366  0.95488485  0.39378029    -0.18000
C2051       C  0.86343831  0.95591065  0.59866267    -0.18000
C2052       C  0.86273580  0.55847784  0.60085656    -0.18000
H2053       H  0.83716235  0.53379189  0.29670050     0.14900
H2054       H  0.83575064  0.97866083  0.29601779     0.14900
H2055       H  0.84134656  0.53456467  0.70306286     0.14900
H2056       H  0.84213456  0.97949630  0.70201088     0.14900
H2057       H  0.88428269  0.60772671  0.44180136     0.13200
H2058       H  0.88510442  0.60847004  0.55188220     0.13200
H2059       H  0.88597656  0.90601242  0.43847029     0.13200
H2060       H  0.88919351  0.90776668  0.54868679     0.13200
H2061       H  0.87289960  0.50601784  0.44761058     0.26400
H2062       H  0.87425616  0.50701347  0.54527659     0.26400
C2063       C  0.60031127  0.89727266  0.78727706     0.30300
C2064       C  0.63332998  0.86547447  0.71826101     0.30300
C2065       C  0.62947538  0.88986214  0.81033707    -0.05900
C2066       C  0.58786364  0.86897676  0.76963558    -0.06700
C2067       C  0.60841479  0.91055563  0.72983172    -0.06600
C2068       C  0.64575066  0.87266840  0.77597713    -0.05900
C2069       C  0.60474804  0.85228665  0.73558888    -0.06700
C2070       C  0.62482686  0.89388339  0.69474082    -0.06600
C2071       C  0.66983343  0.86647549  0.80497603    -0.32000
N2072       N  0.66953190  0.88079253  0.85441102     0.14500
C2073       C  0.64512821  0.89547544  0.85767041    -0.32000
H2074       H  0.63916798  0.90910530  0.89229781     0.16500
C2075       C  0.59020201  0.82735227  0.72822811    -0.30900
N2076       N  0.56467902  0.82922810  0.75406555     0.13300
C2077       C  0.56314923  0.85463216  0.77993758    -0.30900
C2078       C  0.63020117  0.90851278  0.64608245    -0.31200
N2079       N  0.61773779  0.93401369  0.65013211     0.13800
H2080       H  0.64286739  0.90128237  0.61081011     0.16400
C2081       C  0.60477413  0.93553811  0.70148322    -0.31200
H2082       H  0.59378063  0.95382474  0.71713512     0.16400
H2083       H  0.54546819  0.86205575  0.80485208     0.16400
H2084       H  0.68645061  0.85251417  0.79132926     0.16500
H2085       H  0.59743235  0.80878134  0.70632951     0.16400
N2086       N  0.53496106  0.75703464  0.75034683    -0.36300
N2087       N  0.99211245  0.80014519  0.74524079    -0.56900
N2088       N  0.94900979  0.75676985  0.73319540    -0.36300
N2089       N  0.99171247  0.71380119  0.74820126    -0.56900
C2090       C  0.54982513  0.78004543  0.76511244     0.27300
C2091       C  0.54977710  0.73441478  0.76606296     0.27300
C2092       C  0.93371322  0.77995632  0.74628560     0.27200
C2093       C  0.93354655  0.73421555  0.74859954     0.27200
C2094       C  0.51546054  0.81571807  0.73651376     0.35900
C2095       C  0.97020939  0.81555054  0.72784986     0.35900
C2096       C  0.51498170  0.69782747  0.74118814     0.35900
C2097       C  0.96956842  0.69761459  0.73377742     0.35900
C2098       C  0.57423194  0.77191007  0.79085095    -0.21600
C2099       C  0.57424518  0.74314197  0.79127291    -0.21600
C2100       C  0.90850454  0.77199324  0.77080456    -0.21600
C2101       C  0.90857780  0.74324895  0.77267253    -0.21600
C2102       C  0.50837432  0.84090291  0.71284921    -0.22700
C2103       C  0.97974064  0.84077074  0.70725856    -0.22700
C2104       C  0.50757881  0.67152847  0.72171472    -0.22700
C2105       C  0.97888594  0.67140543  0.71695874    -0.22700
C2106       C  0.54287420  0.80804080  0.75235437    -0.18000
C2107       C  0.54261481  0.70612296  0.75522925    -0.18000
C2108       C  0.94101928  0.70568607  0.73993714    -0.18000
C2109       C  0.94165225  0.80804115  0.73521326    -0.18000
H2110       H  0.59048132  0.78528244  0.80732558     0.14900
H2111       H  0.59048898  0.73014440  0.80812429     0.14900
H2112       H  0.89206143  0.78546498  0.78719861     0.14900
H2113       H  0.89259460  0.73043949  0.79173513     0.14900
H2114       H  0.52233371  0.85761946  0.70063319     0.13200
H2115       H  0.96738849  0.85740500  0.69009060     0.13200
H2116       H  0.52136146  0.65418553  0.71182808     0.13200
H2117       H  0.96639384  0.65395139  0.70271436     0.13200
H2118       H  0.51732902  0.75668443  0.72537152     0.26400
H2119       H  0.96782288  0.75630623  0.71041345     0.26400
C2120       C  0.84827219  0.64967361  0.71927934     0.30300
C2121       C  0.88241942  0.61770614  0.78059516     0.30300
C2122       C  0.85614648  0.62086446  0.69192763    -0.05900
C2123       C  0.87768973  0.66219453  0.73046550    -0.06700
C2124       C  0.83665114  0.64135946  0.77728258    -0.06600
C2125       C  0.87330947  0.60419017  0.72388673    -0.05900
C2126       C  0.89467158  0.64589081  0.76262011    -0.06700
C2127       C  0.85372293  0.62469306  0.80816110    -0.06600
C2128       C  0.87667210  0.57904693  0.69430634    -0.32000
N2129       N  0.86326633  0.58031078  0.64452354     0.14500
C2130       C  0.85086117  0.60589748  0.64274582    -0.32000
H2131       H  0.83890374  0.61307838  0.60774607     0.16500
C2132       C  0.91983151  0.65986074  0.76928156    -0.30900
N2133       N  0.91910964  0.68429898  0.74096857     0.13300
C2134       C  0.89364160  0.68547129  0.71588546    -0.30900
C2135       C  0.83856891  0.61759992  0.85616228    -0.31200
N2136       N  0.81328337  0.63073367  0.85653492     0.13800
H2137       H  0.84535529  0.60373087  0.88856490     0.16400
C2138       C  0.81185420  0.64509678  0.80782843    -0.31200
H2139       H  0.79408587  0.65740502  0.79537602     0.16400
H2140       H  0.88714444  0.70217616  0.68905705     0.16400
H2141       H  0.88782398  0.56081468  0.70785644     0.16500
H2142       H  0.93724400  0.65281692  0.79378594     0.16400
N2143       N  0.74178742  0.87992485  0.08308631    -0.36300
N2144       N  0.78538133  0.88187313  0.99571405    -0.56900
N2145       N  0.74228598  0.87792358  0.91029154    -0.36300
N2146       N  0.69883562  0.88096250  0.99776863    -0.56900
C2147       C  0.76444361  0.88735092  0.11345108     0.27300
C2148       C  0.71856799  0.88642524  0.11411233     0.27300
C2149       C  0.76522826  0.88504828  0.87940063     0.27200
C2150       C  0.71942152  0.88522346  0.88088462     0.27200
C2151       C  0.80102148  0.87644138  0.04122447     0.35900
C2152       C  0.80132162  0.87516276  0.94983856     0.35900
C2153       C  0.68285228  0.87483949  0.04332854     0.35900
C2154       C  0.68332796  0.87430131  0.95261807     0.35900
C2155       C  0.75548027  0.89885971  0.16417308    -0.21600
C2156       C  0.72658829  0.89828310  0.16459392    -0.21600
C2157       C  0.75682536  0.89716271  0.83013474    -0.21600
C2158       C  0.72794584  0.89736652  0.83126750    -0.21600
C2159       C  0.82677054  0.86582907  0.02407709    -0.22700
C2160       C  0.82703536  0.86512900  0.96638676    -0.22700
C2161       C  0.65730635  0.86406656  0.02703821    -0.22700
C2162       C  0.65778178  0.86348859  0.96952119    -0.22700
C2163       C  0.79291207  0.88243783  0.09782371    -0.18000
C2164       C  0.69044185  0.88039381  0.09932249    -0.18000
C2165       C  0.69112551  0.87992455  0.89656562    -0.18000
C2166       C  0.79346365  0.87963620  0.89339822    -0.18000
H2167       H  0.76837479  0.90684970  0.19755275     0.14900
H2168       H  0.71307201  0.90576899  0.19835537     0.14900
H2169       H  0.77008905  0.90536217  0.79707431     0.14900
H2170       H  0.71469780  0.90597726  0.79970209     0.14900
H2171       H  0.84348682  0.85890791  0.05038171     0.13200
H2172       H  0.84415113  0.85782818  0.93981175     0.13200
H2173       H  0.64024319  0.85705244  0.05370753     0.13200
H2174       H  0.64148650  0.85550589  0.94301430     0.13200
H2175       H  0.74217103  0.86829175  0.04597938     0.26400
H2176       H  0.74225674  0.86614801  0.94660425     0.26400
N2177       N  0.74314172  0.62692630  0.09265146    -0.36300
N2178       N  0.69831085  0.62676456  0.00790678    -0.56900
N2179       N  0.74083886  0.63096391  0.91978336    -0.36300
N2180       N  0.78572239  0.62566920  0.00398081    -0.56900
C2181       C  0.72012250  0.62013224  0.12399345     0.27300
C2182       C  0.76633169  0.62002759  0.12199204     0.27300
C2183       C  0.71763283  0.62506802  0.88954179     0.27200
C2184       C  0.76361641  0.62463069  0.88726515     0.27200
C2185       C  0.68334940  0.63255700  0.05545675     0.35900
C2186       C  0.68221949  0.63455754  0.96439887     0.35900
C2187       C  0.80204106  0.63133854  0.04891971     0.35900
C2188       C  0.80038233  0.63388770  0.95782363     0.35900
C2189       C  0.72883469  0.60855167  0.17360727    -0.21600
C2190       C  0.75781555  0.60850087  0.17236302    -0.21600
C2191       C  0.72587884  0.61445870  0.83757945    -0.21600
C2192       C  0.75479746  0.61426923  0.83609499    -0.21600
C2193       C  0.65791522  0.64441213  0.04195646    -0.22700
C2194       C  0.65719397  0.64562765  0.98451633    -0.22700
C2195       C  0.82693476  0.64338706  0.03109371    -0.22700
C2196       C  0.82571627  0.64519725  0.97373322    -0.22700
C2197       C  0.69158350  0.62589932  0.11071650    -0.18000
C2198       C  0.79485709  0.62543132  0.10572207    -0.18000
C2199       C  0.79203562  0.62981840  0.90125695    -0.18000
C2200       C  0.68937612  0.63055987  0.90675474    -0.18000
H2201       H  0.71568674  0.60098724  0.20746888     0.14900
H2202       H  0.77108128  0.60082368  0.20499446     0.14900
H2203       H  0.71252082  0.60749396  0.80406255     0.14900
H2204       H  0.76781804  0.60728604  0.80115365     0.14900
H2205       H  0.64160619  0.65178578  0.07042881     0.13200
H2206       H  0.64027220  0.65407599  0.96048956     0.13200
H2207       H  0.84389138  0.65090004  0.05667791     0.13200
H2208       H  0.84128402  0.65463473  0.94680952     0.13200
H2209       H  0.74294882  0.63841163  0.05606031     0.26400
H2210       H  0.74124724  0.64157043  0.95805270     0.26400
C2211       C  0.88258042  0.89695360  0.77521538     0.30300
C2212       C  0.85085186  0.86393295  0.70867580     0.30300
C2213       C  0.85422114  0.88810005  0.80049273    -0.05900
C2214       C  0.87445580  0.90986880  0.71821304    -0.06700
C2215       C  0.89637610  0.86913300  0.75606104    -0.06600
C2216       C  0.83776311  0.87128603  0.76712565    -0.05900
C2217       C  0.85728483  0.89342024  0.68533070    -0.06700
C2218       C  0.87974668  0.85215671  0.72327264    -0.06600
C2219       C  0.81317219  0.86660058  0.79792044    -0.32000
N2220       N  0.81481824  0.87956706  0.84899595     0.14500
C2221       C  0.83982456  0.89307161  0.85037857    -0.32000
H2222       H  0.84701066  0.90578173  0.88505786     0.16500
C2223       C  0.85005961  0.90945777  0.63957321    -0.30900
N2224       N  0.86403646  0.93423524  0.64123796     0.13300
C2225       C  0.87906861  0.93459173  0.68921417    -0.30900
C2226       C  0.89461526  0.82793068  0.71136875    -0.31200
N2227       N  0.92024954  0.82976764  0.73516189     0.13800
H2228       H  0.88729536  0.81028988  0.68692361     0.16400
C2229       C  0.92169588  0.85523000  0.76115968    -0.31200
H2230       H  0.93990857  0.86294833  0.78267777     0.16400
H2231       H  0.89247861  0.95165001  0.70195386     0.16400
H2232       H  0.79511660  0.85489469  0.78422419     0.16500
H2233       H  0.83565078  0.90354749  0.60705928     0.16400
C2234       C  0.88647384  0.61651624  0.22190212     0.30300
C2235       C  0.85070974  0.64834005  0.28491575     0.30300
C2236       C  0.87580903  0.60291948  0.27684092    -0.05900
C2237       C  0.89761879  0.64525830  0.24038955    -0.06700
C2238       C  0.85811683  0.62367052  0.19326856    -0.06600
C2239       C  0.85767790  0.61922510  0.30892581    -0.05900
C2240       C  0.87974485  0.66153212  0.27257065    -0.06700
C2241       C  0.83973880  0.63964115  0.22629628    -0.06600
C2242       C  0.84912118  0.60321397  0.35429915    -0.32000
N2243       N  0.86231014  0.57813022  0.35205921     0.14500
C2244       C  0.87778740  0.57731586  0.30359871    -0.32000
H2245       H  0.89000857  0.55951710  0.28932955     0.16500
C2246       C  0.89369870  0.68676462  0.28230762    -0.30900
N2247       N  0.91953123  0.68605627  0.25641299     0.13300
C2248       C  0.92183705  0.66059490  0.23070666    -0.30900
C2249       C  0.81431249  0.64019985  0.19874894    -0.31200
N2250       N  0.81669364  0.62666361  0.14846187     0.13800
H2251       H  0.79507926  0.64944966  0.21456997     0.16400
C2252       C  0.84330292  0.61593168  0.14537339    -0.31200
H2253       H  0.85111287  0.60281080  0.11138383     0.16400
H2254       H  0.93974519  0.65379979  0.20571416     0.16400
H2255       H  0.83422485  0.60912750  0.38691061     0.16500
H2256       H  0.88542010  0.70442831  0.30589928     0.16400
C2257       C  0.63241155  0.64860356  0.72770932     0.30300
C2258       C  0.59890724  0.61584960  0.79174309     0.30300
C2259       C  0.64449231  0.64114460  0.78554509    -0.05900
C2260       C  0.60340058  0.66063366  0.74190877    -0.06700
C2261       C  0.62613319  0.61919154  0.70363816    -0.06600
C2262       C  0.62702987  0.62475864  0.81907724    -0.05900
C2263       C  0.58651150  0.64474469  0.77631023    -0.06700
C2264       C  0.60800695  0.60331236  0.73486946    -0.06600
C2265       C  0.64139874  0.62007626  0.86820225    -0.32000
N2266       N  0.66741718  0.63188328  0.86471738     0.14500
C2267       C  0.66941085  0.64454800  0.81400257    -0.32000
H2268       H  0.68791425  0.65515118  0.79850731     0.16500
C2269       C  0.56293136  0.66106281  0.78834134    -0.30900
N2270       N  0.56431070  0.68498480  0.75846287     0.13300
C2271       C  0.58923939  0.68500469  0.73030820    -0.30900
C2272       C  0.60358164  0.57855796  0.70550593    -0.31200
N2273       N  0.61956940  0.57869250  0.65793943     0.13800
H2274       H  0.58979079  0.56171736  0.71785735     0.16400
C2275       C  0.63424290  0.60292802  0.65767713    -0.31200
H2276       H  0.64941002  0.60835401  0.62546901     0.16400
H2277       H  0.59662658  0.70161350  0.70359212     0.16400
H2278       H  0.63372712  0.60821255  0.90345748     0.16500
H2279       H  0.54590477  0.65623476  0.81704832     0.16400
C2280       C  0.63525919  0.86780206  0.28466210     0.30300
C2281       C  0.60304292  0.90153740  0.22215765     0.30300
C2282       C  0.64707449  0.87472446  0.22562115    -0.05900
C2283       C  0.60609197  0.85550594  0.26955020    -0.06700
C2284       C  0.62848415  0.89673432  0.31077787    -0.06600
C2285       C  0.63073003  0.89193231  0.19401939    -0.05900
C2286       C  0.58953592  0.87270513  0.23721947    -0.06700
C2287       C  0.61154756  0.91351796  0.27948065    -0.06600
C2288       C  0.64428526  0.89489953  0.14256890    -0.32000
N2289       N  0.66880030  0.88053607  0.14277227     0.14500
C2290       C  0.67018337  0.86738017  0.19249828    -0.32000
H2291       H  0.68696437  0.85341274  0.20319171     0.16500
C2292       C  0.56668344  0.85645291  0.22080056    -0.30900
N2293       N  0.56791398  0.83080077  0.24444691     0.13300
C2294       C  0.59255062  0.82972200  0.27212200    -0.30900
C2295       C  0.60709051  0.93809325  0.30980591    -0.31200
N2296       N  0.62133895  0.93703012  0.35865490     0.13800
H2297       H  0.59433579  0.95547386  0.29713019     0.16400
C2298       C  0.63459785  0.91173430  0.35929098    -0.31200
H2299       H  0.64751710  0.90455939  0.39294273     0.16400
H2300       H  0.60032375  0.81109630  0.29138221     0.16400
H2301       H  0.63706185  0.90687385  0.10761972     0.16500
H2302       H  0.55060924  0.86216051  0.19185424     0.16400
O2303       O  0.52049979  0.51588859  0.12434734    -0.79900
O2304       O  0.96330195  0.53473510  0.91509424    -0.79900
O2305       O  0.52187517  0.54840507  0.95102981    -0.79900
O2306       O  0.96250788  0.55181376  0.03768853    -0.79800
O2307       O  0.51295272  0.51832925  0.88518649    -0.80000
O2308       O  0.96625260  0.52579384  0.11295847    -0.79900
O2309       O  0.92323538  0.53390951  0.96292782    -0.79900
O2310       O  0.52825047  0.54751281  0.06041415    -0.79900
C2311       C  0.53019909  0.53933570  0.10972927     1.09800
C2312       C  0.93780692  0.54239846  0.92179790     1.09700
C2313       C  0.52286892  0.54151105  0.90060669     1.09800
C2314       C  0.96118059  0.54927880  0.09015068     1.09700
O2315       O  0.96111734  0.96935750  0.05828256    -0.79900
O2316       O  0.50715373  0.96526963  0.93874196    -0.79900
O2317       O  0.55126218  0.99166186  0.05304863    -0.79900
O2318       O  0.94464606  0.98244587  0.94956844    -0.79900
O2319       O  0.96769239  0.98432518  0.86809074    -0.79900
O2320       O  0.51551374  0.96380112  0.06270903    -0.79900
O2321       O  0.93102290  0.00238177  0.05331646    -0.79800
O2322       O  0.54523445  0.99155555  0.94174137    -0.79900
Co2323     Co  0.99054911  0.49349839  0.08630377     1.51500
Co2324     Co  0.98450759  0.49872573  0.93279514     1.51700
Co2325     Co  0.53480601  0.51998896  0.00142971     1.51600
Co2326     Co  0.95579473  0.51846749  0.99328145     1.51500
O2327       O  0.99502116  0.50816813  0.01022513    -1.41800
C2328       C  0.93693505  0.97802596  0.06775651     1.09800
C2329       C  0.53282709  0.96898037  0.92817678     1.09800
C2330       C  0.54086185  0.96873719  0.06976295     1.09800
C2331       C  0.94769346  0.97507068  0.89786427     1.09800
O2332       O  0.74818554  0.69693638  0.44672713    -0.79900
O2333       O  0.75708770  0.81190454  0.55297845    -0.79900
O2334       O  0.78853413  0.77890678  0.43415721    -0.79900
O2335       O  0.75445042  0.73442517  0.63310446    -0.79800
O2336       O  0.76144775  0.81562609  0.44015355    -0.80000
O2337       O  0.76417715  0.71247439  0.55285004    -0.79900
O2338       O  0.78021128  0.77243650  0.56594403    -0.79900
O2339       O  0.78126641  0.72676527  0.44322483    -0.79900
C2340       C  0.77301830  0.70274772  0.43349052     1.09800
C2341       C  0.77774877  0.79855767  0.57222885     1.09700
C2342       C  0.78488979  0.80425025  0.42741757     1.09800
C2343       C  0.76731485  0.71543961  0.60594660     1.09700
O2344       O  0.71368584  0.69043080  0.53447350    -0.79900
O2345       O  0.70489782  0.79254456  0.43414283    -0.79900
O2346       O  0.72642276  0.73115851  0.38313238    -0.79900
O2347       O  0.72604766  0.78097370  0.61042147    -0.79900
O2348       O  0.69959425  0.79070443  0.54109461    -0.79900
O2349       O  0.69844796  0.72909420  0.45751010    -0.79900
O2350       O  0.70722413  0.73165715  0.57515953    -0.79800
O2351       O  0.73693940  0.78546661  0.36944636    -0.79900
Co2352     Co  0.73039406  0.72256658  0.50435856     1.51500
Co2353     Co  0.73069456  0.80109191  0.49205867     1.51700
Co2354     Co  0.75832600  0.75541433  0.41058347     1.51600
Co2355     Co  0.74534202  0.75131520  0.56555680     1.51500
O2356       O  0.74172860  0.76140119  0.48621865    -1.41800
C2357       C  0.70085557  0.70574370  0.56978475     1.09800
C2358       C  0.71285810  0.79437624  0.38445344     1.09800
C2359       C  0.70210617  0.72737673  0.40529851     1.09800
C2360       C  0.70395340  0.79143380  0.59229760     1.09800
C2361       C  0.58687332  0.92208013  0.18798497    -0.05900
C2362       C  0.55798462  0.91850490  0.18393585    -0.17000
C2363       C  0.54296727  0.93115694  0.14238090     0.11300
C2364       C  0.55654732  0.95081777  0.10730355    -0.05800
C2365       C  0.58463351  0.95746905  0.11678869    -0.17000
C2366       C  0.59968893  0.94439376  0.15821268     0.11400
S2367       S  0.50656626  0.92114656  0.13853171    -0.32000
S2368       S  0.63415980  0.95903097  0.17044702    -0.32000
H2369       H  0.64120528  0.94548319  0.21941184     0.29400
H2370       H  0.50887271  0.91296872  0.08182420     0.29400
H2371       H  0.54667072  0.90590483  0.21370511     0.20000
H2372       H  0.59485675  0.97370576  0.09290565     0.20000
C2373       C  0.65508382  0.85053255  0.31848751    -0.05900
C2374       C  0.68390859  0.85548019  0.31180548    -0.17000
C2375       C  0.70349843  0.83517029  0.32460382     0.11300
C2376       C  0.69420664  0.81029249  0.34936431    -0.05800
C2377       C  0.66544307  0.80683077  0.36149798    -0.17000
C2378       C  0.64639520  0.82792543  0.35124203     0.11400
S2379       S  0.74004029  0.84223089  0.31165972    -0.32000
S2380       S  0.61502147  0.82877300  0.39463947    -0.32000
H2381       H  0.60981763  0.85741411  0.38893959     0.29400
H2382       H  0.73674501  0.86708443  0.28186751     0.29400
H2383       H  0.69098033  0.87493717  0.29397730     0.20000
H2384       H  0.65844419  0.78935376  0.38649075     0.20000
C2385       C  0.64784455  0.66740049  0.68782920    -0.05900
C2386       C  0.64274742  0.66328762  0.63050553    -0.17000
C2387       C  0.66036652  0.67410615  0.59013571     0.11300
C2388       C  0.67981029  0.69441299  0.60689464    -0.05800
C2389       C  0.68004288  0.70391159  0.66277377    -0.17000
C2390       C  0.66391649  0.69087640  0.70371043     0.11400
S2391       S  0.65719698  0.65907332  0.52065514    -0.32000
S2392       S  0.66369058  0.70702103  0.77243834    -0.32000
H2393       H  0.63713453  0.69788041  0.78981674     0.29400
H2394       H  0.67259731  0.67852444  0.49030942     0.29400
H2395       H  0.62570712  0.65025065  0.61655397     0.20000
H2396       H  0.69366062  0.72095245  0.67511888     0.20000
C2397       C  0.57967510  0.59529617  0.82038907    -0.05900
C2398       C  0.55065858  0.59844107  0.81235720    -0.17000
C2399       C  0.53127030  0.58152013  0.83850806     0.11300
C2400       C  0.54076146  0.55766128  0.86491511    -0.05800
C2401       C  0.56930446  0.55156321  0.86608410    -0.17000
C2402       C  0.58904690  0.56977637  0.84364279     0.11400
S2403       S  0.49517722  0.59237027  0.83809647    -0.32000
S2404       S  0.62478109  0.55722233  0.84483264    -0.32000
H2405       H  0.63568930  0.57069499  0.79784491     0.29400
H2406       H  0.48869557  0.58402311  0.89290690     0.29400
H2407       H  0.54241121  0.61365100  0.78450153     0.20000
H2408       H  0.57632209  0.53274410  0.88626172     0.20000
C2409       C  0.90884466  0.60075984  0.18907432    -0.05900
C2410       C  0.91216128  0.60633442  0.13185054    -0.17000
C2411       C  0.93365993  0.59384471  0.10045640     0.11300
C2412       C  0.94916679  0.57215514  0.12438628    -0.05800
C2413       C  0.94906339  0.56999109  0.18259056    -0.17000
C2414       C  0.93117196  0.58664050  0.21544377     0.11400
S2415       S  0.94264118  0.60893672  0.03404258    -0.32000
S2416       S  0.94021630  0.59273911  0.28787910    -0.32000
H2417       H  0.96456630  0.57623942  0.28780814     0.29400
H2418       H  0.97153057  0.60371777  0.03819792     0.29400
H2419       H  0.89935603  0.62197929  0.11245220     0.20000
H2420       H  0.96328438  0.55569894  0.20222456     0.20000
C2421       C  0.79064652  0.68581514  0.39724883    -0.05900
C2422       C  0.78948994  0.69198611  0.34018195    -0.17000
C2423       C  0.81104340  0.68399914  0.30346775     0.11300
C2424       C  0.83209550  0.66605750  0.32286158    -0.05800
C2425       C  0.83528087  0.66369847  0.38095922    -0.17000
C2426       C  0.81467211  0.67304784  0.41825212     0.11400
S2427       S  0.81351555  0.70256631  0.23823208    -0.32000
S2428       S  0.82047396  0.66845346  0.49186583    -0.32000
H2429       H  0.81333629  0.69589584  0.50763022     0.29400
H2430       H  0.84234189  0.69857573  0.22934311     0.29400
H2431       H  0.77326065  0.70572992  0.32536800     0.20000
H2432       H  0.85378617  0.65400294  0.39755117     0.20000
C2433       C  0.79742846  0.81336168  0.60703237    -0.05900
C2434       C  0.81562901  0.83208283  0.58163506    -0.17000
C2435       C  0.83658539  0.84484370  0.61219424     0.11300
C2436       C  0.83481685  0.84421446  0.67136734    -0.05800
C2437       C  0.81785799  0.82378831  0.69627593    -0.17000
C2438       C  0.79876637  0.80859091  0.66480937     0.11400
S2439       S  0.86672481  0.85647024  0.57227257    -0.32000
S2440       S  0.77446623  0.78556238  0.69976042    -0.32000
H2441       H  0.78520963  0.78863017  0.75391291     0.29400
H2442       H  0.88626208  0.85625908  0.61508022     0.29400
H2443       H  0.81419606  0.83573186  0.53736629     0.20000
H2444       H  0.81939514  0.81981706  0.74043953     0.20000
C2445       C  0.89779665  0.91599956  0.81501961    -0.05900
C2446       C  0.88970779  0.94417387  0.81616894    -0.17000
C2447       C  0.90497549  0.96391858  0.84548025     0.11300
C2448       C  0.92859290  0.95512547  0.87427471    -0.05800
C2449       C  0.93345744  0.92681635  0.88233912    -0.17000
C2450       C  0.91661023  0.90698149  0.85644250     0.11400
S2451       S  0.89331853  0.49967617  0.84789272    -0.32000
S2452       S  0.91694919  0.87262658  0.88659553    -0.32000
H2453       H  0.88995181  0.86468835  0.87084632     0.29400
H2454       H  0.87411167  0.49747667  0.80405455     0.29400
H2455       H  0.87128865  0.95075584  0.79425882     0.20000
H2456       H  0.94959243  0.92028444  0.91070207     0.20000
C2457       C  0.92680561  0.56277945  0.88429112    -0.05900
C2458       C  0.91292859  0.58547627  0.90848809    -0.17000
C2459       C  0.90302271  0.60664859  0.87574713     0.11300
C2460       C  0.90207620  0.60212078  0.81709392    -0.05800
C2461       C  0.91934841  0.58152807  0.79299234    -0.17000
C2462       C  0.93154587  0.56148107  0.82582047     0.11400
S2463       S  0.89455495  0.63880027  0.91271943    -0.32000
S2464       S  0.94976648  0.53347743  0.78954616    -0.32000
H2465       H  0.97547381  0.53804414  0.81532097     0.29400
H2466       H  0.89048238  0.65626162  0.86741659     0.29400
H2467       H  0.91045632  0.58710744  0.95336821     0.20000
H2468       H  0.92343140  0.58091743  0.74845597     0.20000
C2469       C  0.82747915  0.66768409  0.68999777    -0.05900
C2470       C  0.80628455  0.65423601  0.65957374    -0.17000
C2471       C  0.78647396  0.66928745  0.63105367     0.11300
C2472       C  0.78737212  0.69848100  0.63405256    -0.05800
C2473       C  0.80617049  0.71197550  0.66907116    -0.17000
C2474       C  0.82466567  0.69684086  0.70059623     0.11400
S2475       S  0.75857650  0.65026177  0.59797665    -0.32000
S2476       S  0.83951164  0.71623779  0.75818824    -0.32000
H2477       H  0.84272860  0.69424920  0.79530689     0.29400
H2478       H  0.76406214  0.66100381  0.54457891     0.29400
H2479       H  0.80396449  0.63184971  0.66029736     0.20000
H2480       H  0.80527495  0.73443120  0.67444436     0.20000
C2481       C  0.54744611  0.94887226  0.89284986    -0.05900
C2482       C  0.56290744  0.92803463  0.91781244    -0.17000
C2483       C  0.57804765  0.90891592  0.88500409     0.11300
C2484       C  0.58055281  0.91323761  0.82619120    -0.05800
C2485       C  0.56136703  0.93130326  0.80188165    -0.17000
C2486       C  0.54540206  0.94969736  0.83430870     0.11400
S2487       S  0.58961040  0.87847279  0.92166448    -0.32000
S2488       S  0.52256099  0.97370496  0.79984021    -0.32000
H2489       H  0.53363894  0.96983209  0.74534952     0.29400
H2490       H  0.59338169  0.86040110  0.87584800     0.29400
H2491       H  0.56227117  0.92604217  0.96297369     0.20000
H2492       H  0.55823617  0.93063782  0.75732888     0.20000
C2493       C  0.65224815  0.84898537  0.67893026    -0.05900
C2494       C  0.64035636  0.82831889  0.64471692    -0.17000
C2495       C  0.65663287  0.80725818  0.62101838     0.11300
C2496       C  0.68580486  0.80843077  0.62711358    -0.05800
C2497       C  0.69814410  0.83142244  0.65327123    -0.17000
C2498       C  0.68174161  0.85272017  0.67608360     0.11400
S2499       S  0.63906170  0.77965464  0.58327269    -0.32000
S2500       S  0.70029703  0.88467470  0.69245594    -0.32000
H2501       H  0.67769795  0.90227400  0.70453563     0.29400
H2502       H  0.65861173  0.75885660  0.59579779     0.29400
H2503       H  0.61829227  0.82852793  0.63588601     0.20000
H2504       H  0.72072952  0.83393870  0.65162675     0.20000
C2505       C  0.80446469  0.81729105  0.38936344    -0.05900
C2506       C  0.79911140  0.81357638  0.33237697    -0.17000
C2507       C  0.81686804  0.82501260  0.29243871     0.11300
C2508       C  0.83706100  0.84441037  0.31086154    -0.05800
C2509       C  0.84625447  0.84227060  0.36615006    -0.17000
C2510       C  0.83123197  0.82655753  0.40453694     0.11400
S2511       S  0.81748562  0.80806398  0.22439296    -0.32000
S2512       S  0.85014819  0.81414164  0.46364880    -0.32000
H2513       H  0.83114045  0.79377557  0.48176157     0.29400
H2514       H  0.84536343  0.81480790  0.21085398     0.29400
H2515       H  0.78248513  0.79978216  0.31896226     0.20000
H2516       H  0.86578467  0.85186606  0.37858361     0.20000
C2517       C  0.91869126  0.96053692  0.10093406    -0.05900
C2518       C  0.91200567  0.93445047  0.07775904    -0.17000
C2519       C  0.90340602  0.91243816  0.11159698     0.11300
C2520       C  0.90087964  0.91710825  0.17043139    -0.05800
C2521       C  0.91273129  0.94138816  0.19264239    -0.17000
C2522       C  0.91877646  0.96399846  0.15929843     0.11400
S2523       S  0.89916534  0.87919119  0.07578285    -0.32000
S2524       S  0.92810842  0.99612412  0.19405891    -0.32000
H2525       H  0.91464347  0.01309735  0.15524690     0.29400
H2526       H  0.89075843  0.86238020  0.12010467     0.29400
H2527       H  0.91507063  0.93078971  0.03316436     0.20000
H2528       H  0.91792504  0.94275434  0.23615265     0.20000
C2529       C  0.67911161  0.71647393  0.37144067    -0.05900
C2530       C  0.68336498  0.71268322  0.31405053    -0.17000
C2531       C  0.66620991  0.69457962  0.28433774     0.11300
C2532       C  0.64968168  0.67477653  0.31485870    -0.05800
C2533       C  0.64223250  0.68213692  0.37024378    -0.17000
C2534       C  0.65487659  0.70491892  0.39648892     0.11400
S2535       S  0.66352616  0.70235015  0.21065149    -0.32000
S2536       S  0.63755705  0.72036199  0.45711587    -0.32000
H2537       H  0.64868010  0.74723501  0.44908518     0.29400
H2538       H  0.63622698  0.69248050  0.20339381     0.29400
H2539       H  0.69926500  0.72466023  0.29209954     0.20000
H2540       H  0.62519152  0.67144867  0.39146002     0.20000
C2541       C  0.58101979  0.59302833  0.20610661    -0.05900
C2542       C  0.59315711  0.57333351  0.16939215    -0.17000
C2543       C  0.57687726  0.55586345  0.13692999     0.11300
C2544       C  0.54785062  0.55526764  0.14671304    -0.05800
C2545       C  0.53581351  0.57109457  0.19000915    -0.17000
C2546       C  0.55216570  0.58945501  0.22133877     0.11400
S2547       S  0.59360312  0.53505185  0.08240672    -0.32000
S2548       S  0.53430139  0.60545992  0.28078294    -0.32000
H2549       H  0.55739218  0.61117907  0.31403538     0.29400
H2550       H  0.62043229  0.54702603  0.08598376     0.29400
H2551       H  0.61549148  0.57088873  0.16669580     0.20000
H2552       H  0.51356582  0.56936643  0.19896200     0.20000
loop_ 
_geom_bond_atom_site_label_1 
_geom_bond_atom_site_label_2 
_geom_bond_distance 
_geom_bond_site_symmetry_2 
_ccdc_geom_bond_type 
C1            C3   1.570       .  S
C1            C5   1.537       .  S
C1            C4   1.545       .  S
C1          C627   1.515       .  S
C2            C6   1.544       .  S
C2            C8   1.565       .  S
C2            C7   1.541       .  S
C2          C618   1.514       .  S
C3           C11   1.400       .  A
C3            C6   1.387       .  A
C4           C15   1.395       .  A
C4            C7   1.376       .  A
C5           C19   1.380       .  A
C5            C8   1.388       .  A
C6            C9   1.388       .  A
C7           C13   1.385       .  A
C8           C16   1.403       .  A
C9           N10   1.356       .  A
C9           H22   1.082       .  S
N10          C11   1.366       .  A
N10         C283   1.463       .  S
C11          H12   1.081       .  S
C13          N14   1.360       .  A
C13          H23   1.082       .  S
N14          C15   1.367       .  A
N14          C45   1.463       .  S
C15          H21   1.082       .  S
C16          N17   1.377       .  A
C16          H18   1.082       .  S
N17          C19   1.356       .  A
N17         C101   1.468       .  S
C19          H20   1.083       .  S
N24          C28   1.363       .  A
N24        C1305   1.360       .  A
N24          H56   1.041       .  S
N25          C32   1.362       .  A
N25          C33   1.359       .  A
N26          C30   1.360       .  A
N26        C1307   1.362       .  A
N26          H57   1.041       .  S
N27          C34   1.359       .  A
N27          C35   1.361       .  A
C28          C36   1.385       .  A
C28          C44   1.429       .  A
C29          C45   1.428       .  A
C29          C37   1.385       .  A
C29        N1300   1.360   1_455  A
C30          C38   1.386       .  A
C30          C47   1.426       .  A
C31          C46   1.430       .  A
C31          C39   1.387       .  A
C31        N1302   1.362   1_455  A
C32          C44   1.426       .  A
C32          C40   1.383       .  A
C33          C47   1.431       .  A
C33          C41   1.388       .  A
C34          C42   1.387       .  A
C34          C45   1.428       .  A
C35          C43   1.384       .  A
C35          C46   1.426       .  A
C36        C1313   1.380       .  A
C36          H48   1.082       .  S
C37        C1312   1.380   1_455  A
C37          H49   1.079       .  S
C38        C1315   1.379       .  A
C38          H50   1.082       .  S
C39        C1314   1.379   1_455  A
C39          H51   1.082       .  S
C40          C41   1.378       .  A
C40          H52   1.082       .  S
C41          H53   1.082       .  S
C42          C43   1.378       .  A
C42          H54   1.081       .  S
C43          H55   1.082       .  S
C44         N333   1.470       .  S
C46         N379   1.469       .  S
C47          N74   1.463       .  S
C58          C60   1.551       .  S
C58          C62   1.530       .  S
C58          C61   1.546       .  S
C58         C594   1.496       .  S
C59          C63   1.549       .  S
C59          C65   1.548       .  S
C59          C64   1.577       .  S
C59         C606   1.515       .  S
C60          C68   1.392       .  A
C60          C63   1.384       .  A
C61          C72   1.392       .  A
C61          C64   1.388       .  A
C62          C76   1.380       .  A
C62          C65   1.375       .  A
C63          C66   1.390       .  A
C64          C70   1.403       .  A
C65          C73   1.396       .  A
C66          N67   1.361       .  A
C66          H79   1.082       .  S
N67          C68   1.362       .  A
N67         C249   1.461       .  S
C68          H69   1.081       .  S
C70          N71   1.362       .  A
C70          H80   1.078       .  S
N71          C72   1.361       .  A
N71         C136   1.467       .  S
C72          H78   1.082       .  S
C73          N74   1.370       .  A
C73          H75   1.082       .  S
N74          C76   1.359       .  A
C76          H77   1.082       .  S
N81          C85   1.365       .  A
N81         C724   1.363   1_545  A
N81         H113   1.042       .  S
N82          C89   1.359       .  A
N82          C90   1.356       .  A
N83          C87   1.356       .  A
N83         C726   1.359   1_545  A
N83         H114   1.040       .  S
N84          C91   1.358       .  A
N84          C92   1.361       .  A
C85          C93   1.387       .  A
C85         C101   1.437       .  A
C86         C102   1.436       .  A
C86          C94   1.387       .  A
C86         N719   1.363       .  A
C87          C95   1.385       .  A
C87         C104   1.418       .  A
C88         C103   1.423       .  A
C88          C96   1.386       .  A
C88         N721   1.359       .  A
C89         C101   1.420       .  A
C89          C97   1.385       .  A
C90         C104   1.421       .  A
C90          C98   1.386       .  A
C91          C99   1.386       .  A
C91         C102   1.427       .  A
C92         C100   1.384       .  A
C92         C103   1.426       .  A
C93         C732   1.384   1_545  A
C93         H105   1.082       .  S
C94         C731   1.384       .  A
C94         H106   1.082       .  S
C95         C734   1.379   1_545  A
C95         H107   1.082       .  S
C96         C733   1.379       .  A
C96         H108   1.082       .  S
C97          C98   1.374       .  A
C97         H109   1.081       .  S
C98         H110   1.082       .  S
C99         C100   1.376       .  A
C99         H111   1.082       .  S
C100        H112   1.082       .  S
C102        N382   1.465       .  S
C103        N165   1.465       .  S
C104        N359   1.451       .  S
N115        C119   1.358       .  A
N115        C758   1.360   1_545  A
N115        H147   1.042       .  S
N116        C123   1.361       .  A
N116        C124   1.361       .  A
N117        C121   1.361       .  A
N117        C760   1.360   1_545  A
N117        H148   1.042       .  S
N118        C125   1.362       .  A
N118        C126   1.360       .  A
C119        C127   1.385       .  A
C119        C135   1.422       .  A
C120        C136   1.427       .  A
C120        C128   1.387       .  A
C120        N753   1.360       .  A
C121        C129   1.388       .  A
C121        C138   1.431       .  A
C122        C137   1.427       .  A
C122        C130   1.386       .  A
C122        N755   1.360       .  A
C123        C135   1.429       .  A
C123        C131   1.386       .  A
C124        C138   1.429       .  A
C124        C132   1.385       .  A
C125        C133   1.385       .  A
C125        C136   1.427       .  A
C126        C134   1.382       .  A
C126        C137   1.427       .  A
C127        C766   1.380   1_545  A
C127        H139   1.082       .  S
C128        C765   1.380       .  A
C128        H140   1.082       .  S
C129        C768   1.382   1_545  A
C129        H141   1.082       .  S
C130        C767   1.382       .  A
C130        H142   1.082       .  S
C131        C132   1.377       .  A
C131        H143   1.082       .  S
C132        H144   1.082       .  S
C133        C134   1.377       .  A
C133        H145   1.082       .  S
C134        H146   1.079       .  S
C135        N329   1.461       .  S
C137        N310   1.465       .  S
C138        N215   1.468       .  S
C149        C151   1.550       .  S
C149        C153   1.564       .  S
C149        C152   1.537       .  S
C149        C570   1.514       .  S
C150        C154   1.546       .  S
C150        C156   1.538       .  S
C150        C155   1.556       .  S
C150        C579   1.509       .  S
C151        C159   1.390       .  A
C151        C154   1.385       .  A
C152        C163   1.386       .  A
C152        C155   1.383       .  A
C153        C167   1.397       .  A
C153        C156   1.384       .  A
C154        C157   1.388       .  A
C155        C161   1.393       .  A
C156        C164   1.386       .  A
C157        N158   1.358       .  A
C157        H170   1.082       .  S
N158        C159   1.363       .  A
N158        C251   1.455       .  S
C159        H160   1.082       .  S
C161        N162   1.359       .  A
C161        H171   1.080       .  S
N162        C163   1.360       .  A
N162        C192   1.455       .  S
C163        H169   1.082       .  S
C164        N165   1.362       .  A
C164        H166   1.082       .  S
N165        C167   1.366       .  A
C167        H168   1.081       .  S
N172        C177   1.356       .  A
N172        C176   1.357       .  A
N172        H204   1.041       .  S
N173        C181   1.356       .  A
N173       C1456   1.356       .  A
N174        C179   1.360       .  A
N174        C178   1.361       .  A
N174        H205   1.043       .  S
N175        C183   1.358       .  A
N175       C1458   1.357       .  A
C176        C184   1.386       .  A
C176        C192   1.421       .  A
C177        C193   1.420       .  A
C177        C185   1.386       .  A
C178        C186   1.385       .  A
C178        C195   1.425       .  A
C179        C194   1.425       .  A
C179        C187   1.382       .  A
C180        C192   1.420       .  A
C180        C188   1.385       .  A
C180       N1449   1.356   1_455  A
C181        C195   1.419       .  A
C181        C189   1.385       .  A
C182        C190   1.386       .  A
C182        C193   1.422       .  A
C182       N1451   1.357   1_455  A
C183        C191   1.385       .  A
C183        C194   1.422       .  A
C184        C185   1.379       .  A
C184        H196   1.082       .  S
C185        H197   1.082       .  S
C186        C187   1.379       .  A
C186        H198   1.082       .  S
C187        H199   1.078       .  S
C188       C1465   1.376   1_455  A
C188        H200   1.082       .  S
C189       C1464   1.376       .  A
C189        H201   1.082       .  S
C190       C1467   1.377   1_455  A
C190        H202   1.082       .  S
C191       C1466   1.377       .  A
C191        H203   1.082       .  S
C193        N356   1.454       .  S
C194        N219   1.464       .  S
C195        N313   1.460       .  S
C206        C208   1.563       .  S
C206        C210   1.542       .  S
C206        C209   1.553       .  S
C206        C555   1.505       .  S
C207        C211   1.563       .  S
C207        C213   1.545       .  S
C207        C212   1.536       .  S
C207        C546   1.500       .  S
C208        C216   1.395       .  A
C208        C211   1.391       .  A
C209        C220   1.395       .  A
C209        C212   1.378       .  A
C210        C224   1.391       .  A
C210        C213   1.373       .  A
C211        C214   1.397       .  A
C212        C218   1.386       .  A
C213        C221   1.392       .  A
C214        N215   1.363       .  A
C214        H227   1.080       .  S
N215        C216   1.364       .  A
C216        H217   1.081       .  S
C218        N219   1.362       .  A
C218        H228   1.082       .  S
N219        C220   1.367       .  A
C220        H226   1.082       .  S
C221        N222   1.362       .  A
C221        H223   1.082       .  S
N222        C224   1.363       .  A
N222        C285   1.462       .  S
C224        H225   1.082       .  S
N229        C234   1.357       .  A
N229        C233   1.358       .  A
N229        H261   1.041       .  S
N230        C237   1.359   1_556  A
N230        C238   1.359       .  A
N231        C236   1.358       .  A
N231        C235   1.357       .  A
N231        H262   1.042       .  S
N232        C239   1.354   1_556  A
N232        C240   1.354       .  A
C233        C241   1.386       .  A
C233        C249   1.423       .  A
C234        C250   1.423       .  A
C234        C242   1.387       .  A
C235        C243   1.386       .  A
C235        C252   1.420       .  A
C236        C251   1.420       .  A
C236        C244   1.383       .  A
C237        C249   1.426       .  A
C237        C245   1.385       .  A
C238        C252   1.426       .  A
C238        C246   1.385       .  A
C239        C247   1.384       .  A
C239        C250   1.414       .  A
C240        C248   1.381       .  A
C240        C251   1.414       .  A
C241        C242   1.380       .  A
C241        H253   1.082       .  S
C242        H254   1.082       .  S
C243        C244   1.379       .  A
C243        H255   1.082       .  S
C244        H256   1.080       .  S
C245        C246   1.379   1_554  A
C245        H257   1.080       .  S
C246        H258   1.082       .  S
C247        C248   1.374   1_554  A
C247        H259   1.082       .  S
C248        H260   1.079       .  S
C250        N375   1.452       .  S
C252        N306   1.459       .  S
N263        C268   1.365       .  A
N263        C267   1.361       .  A
N263        H295   1.040       .  S
N264        C271   1.357       .  A
N264        C272   1.360   1_554  A
N265        C270   1.358       .  A
N265        C269   1.361       .  A
N265        H296   1.041       .  S
N266        C273   1.362       .  A
N266        C274   1.359   1_554  A
C267        C275   1.387       .  A
C267        C283   1.433       .  A
C268        C284   1.435       .  A
C268        C276   1.386       .  A
C269        C277   1.386       .  A
C269        C286   1.428       .  A
C270        C285   1.424       .  A
C270        C278   1.386       .  A
C271        C283   1.425       .  A
C271        C279   1.387       .  A
C272        C286   1.424       .  A
C272        C280   1.384       .  A
C273        C281   1.384       .  A
C273        C284   1.427       .  A
C274        C282   1.383       .  A
C274        C285   1.427       .  A
C275        C276   1.384       .  A
C275        H287   1.082       .  S
C276        H288   1.082       .  S
C277        C278   1.381       .  A
C277        H289   1.082       .  S
C278        H290   1.082       .  S
C279        C280   1.376   1_554  A
C279        H291   1.082       .  S
C280        H292   1.082       .  S
C281        C282   1.377   1_554  A
C281        H293   1.082       .  S
C282        H294   1.078       .  S
C284        N336   1.473       .  S
C286        N352   1.467       .  S
C297        C299   1.535       .  S
C297        C301   1.548       .  S
C297        C300   1.560       .  S
C297        C531   1.505       .  S
C298        C302   1.557       .  S
C298        C304   1.539       .  S
C298        C303   1.555       .  S
C298        C522   1.508       .  S
C299        C307   1.384       .  A
C299        C302   1.381       .  A
C300        C311   1.397       .  A
C300        C303   1.384       .  A
C301        C315   1.389       .  A
C301        C304   1.382       .  A
C302        C305   1.395       .  A
C303        C309   1.394       .  A
C304        C312   1.385       .  A
C305        N306   1.366       .  A
C305        H318   1.081       .  S
N306        C307   1.359       .  A
C307        H308   1.082       .  S
C309        N310   1.362       .  A
C309        H319   1.082       .  S
N310        C311   1.363       .  A
C311        H317   1.082       .  S
C312        N313   1.361       .  A
C312        H314   1.082       .  S
N313        C315   1.364       .  A
C315        H316   1.081       .  S
C320        C322   1.552       .  S
C320        C324   1.568       .  S
C320        C323   1.539       .  S
C320        C495   1.511       .  S
C321        C325   1.555       .  S
C321        C327   1.556       .  S
C321        C326   1.549       .  S
C321        C510   1.512       .  S
C322        C330   1.396       .  A
C322        C325   1.382       .  A
C323        C334   1.388       .  A
C323        C326   1.375       .  A
C324        C338   1.402       .  A
C324        C327   1.393       .  A
C325        C328   1.393       .  A
C326        C332   1.399       .  A
C327        C335   1.392       .  A
C328        N329   1.358       .  A
C328        H341   1.081       .  S
N329        C330   1.363       .  A
C330        H331   1.082       .  S
C332        N333   1.371       .  A
C332        H342   1.082       .  S
N333        C334   1.363       .  A
C334        H340   1.083       .  S
C335        N336   1.361       .  A
C335        H337   1.080       .  S
N336        C338   1.372       .  A
C338        H339   1.082       .  S
C343        C345   1.554       .  S
C343        C347   1.547       .  S
C343        C346   1.532       .  S
C343        C471   1.504       .  S
C344        C348   1.560       .  S
C344        C350   1.535       .  S
C344        C349   1.558       .  S
C344        C483   1.509       .  S
C345        C353   1.389       .  A
C345        C348   1.396       .  A
C346        C357   1.384       .  A
C346        C349   1.378       .  A
C347        C361   1.388       .  A
C347        C350   1.370       .  A
C348        C351   1.391       .  A
C349        C355   1.395       .  A
C350        C358   1.388       .  A
C351        N352   1.367       .  A
C351        H364   1.082       .  S
N352        C353   1.365       .  A
C353        H354   1.081       .  S
C355        N356   1.360       .  A
C355        H365   1.082       .  S
N356        C357   1.357       .  A
C357        H363   1.083       .  S
C358        N359   1.359       .  A
C358        H360   1.082       .  S
N359        C361   1.356       .  A
C361        H362   1.082       .  S
C366        C368   1.551       .  S
C366        C370   1.545       .  S
C366        C369   1.558       .  S
C366        C459   1.511       .  S
C367        C371   1.541       .  S
C367        C373   1.539       .  S
C367        C372   1.568       .  S
C367        C447   1.510       .  S
C368        C376   1.390       .  A
C368        C371   1.378       .  A
C369        C380   1.396       .  A
C369        C372   1.394       .  A
C370        C384   1.391       .  A
C370        C373   1.378       .  A
C371        C374   1.389       .  A
C372        C378   1.399       .  A
C373        C381   1.389       .  A
C374        N375   1.359       .  A
C374        H387   1.082       .  S
N375        C376   1.356       .  A
C376        H377   1.081       .  S
C378        N379   1.362       .  A
C378        H388   1.080       .  S
N379        C380   1.361       .  A
C380        H386   1.079       .  S
C381        N382   1.363       .  A
C381        H383   1.082       .  S
N382        C384   1.369       .  A
C384        H385   1.082       .  S
O389        C397   1.267       .  A
O389      Co1685   2.010   1_445  S
O390        C398   1.279       .  A
O390       Co410   2.055   1_545  S
O391        C399   1.245       .  A
O391       Co411   1.939   1_556  S
O392        C400   1.262       .  A
O392       Co412   1.936   1_554  S
O393        C399   1.261       .  A
O393      Co1686   1.999   1_445  S
O394        C400   1.283       .  A
O394       Co409   2.025   1_545  S
O395        C398   1.266       .  A
O395       Co412   1.884       .  S
O396        C397   1.252       .  A
O396       Co411   1.939       .  S
C397        C630   1.443       .  S
C398        C543   1.441       .  S
C399        C486   1.431       .  S
C400        C498   1.470       .  S
O401        C414   1.244       .  A
O401      Co1047   1.942       .  S
O402        C415   1.261       .  A
O402      Co2324   1.944   1_455  S
O403        C416   1.272       .  A
O403      Co1049   2.016       .  S
O404        C417   1.287       .  A
O404      Co1050   2.080       .  S
O405        C417   1.265       .  A
O405      Co1048   1.878       .  S
O406        C416   1.247       .  A
O406      Co2323   1.930   1_455  S
O407        C414   1.256       .  A
O407      Co1050   2.006   1_554  S
O408        C415   1.274       .  A
O408      Co1049   2.016   1_556  S
Co409      O1665   2.010   1_565  S
Co409      O1039   1.942       .  S
Co409      O2320   1.930       .  S
Co409       O413   1.967   1_565  S
Co410      O1669   1.999   1_565  S
Co410      O2316   1.944       .  S
Co410      O1043   1.878       .  S
Co410       O413   1.973   1_566  S
Co411      O1041   2.016   1_545  S
Co411      O1046   2.016   1_544  S
Co411      O1689   1.991   1_455  S
Co412      O1042   2.080   1_545  S
Co412      O1045   2.006   1_556  S
Co412       O413   1.988   1_556  S
O413      Co1687   1.991       .  S
C414        C603   1.444       .  S
C415        C567   1.445       .  S
C416        C450   1.466       .  S
C417        C534   1.437       .  S
O418        C426   1.254       .  A
O418       Co438   2.011       .  S
O419        C427   1.273       .  A
O419       Co439   2.005       .  S
O420        C428   1.241       .  A
O420       Co440   1.917       .  S
O421        C429   1.264       .  A
O421       Co441   1.874       .  S
O422        C428   1.276       .  A
O422       Co439   2.035       .  S
O423        C429   1.286       .  A
O423       Co438   2.065       .  S
O424        C427   1.264       .  A
O424       Co441   1.948       .  S
O425        C426   1.237       .  A
O425       Co440   1.938       .  S
C426        C507   1.440       .  S
C427        C519   1.445       .  S
C428        C591   1.441       .  S
C429        C558   1.438       .  S
O430        C443   1.262       .  A
O430       Co438   1.881       .  S
O431        C444   1.245       .  A
O431       Co439   1.909       .  S
O432        C445   1.282       .  A
O432       Co440   2.028       .  S
O433        C446   1.255       .  A
O433       Co441   1.987       .  S
O434        C446   1.245       .  A
O434       Co439   1.945       .  S
O435        C445   1.259       .  A
O435       Co438   1.936       .  S
O436        C443   1.284       .  A
O436       Co441   2.060       .  S
O437        C444   1.271       .  A
O437       Co440   2.040       .  S
Co438       O442   1.990       .  S
Co439       O442   1.977       .  S
Co440       O442   1.979       .  S
Co441       O442   1.974       .  S
C443        C474   1.440       .  S
C444        C462   1.457       .  S
C445        C615   1.467       .  S
C446        C582   1.437       .  S
C447        C448   1.395       .  A
C447        C452   1.425       .  A
C448        C449   1.382       .  A
C448        H457   1.077       .  S
C449        C450   1.419       .  A
C449        S453   1.807       .  S
C450        C451   1.400       .  A
C451        C452   1.390       .  A
C451        H458   1.083       .  S
C452        S454   1.816       .  S
S453        H456   1.408       .  S
S454        H455   1.393       .  S
C459        C460   1.404       .  A
C459        C464   1.404       .  A
C460        C461   1.392       .  A
C460        H469   1.082       .  S
C461        C462   1.407       .  A
C461        S465   1.800       .  S
C462        C463   1.409       .  A
C463        C464   1.388       .  A
C463        H470   1.085       .  S
C464        S466   1.808       .  S
S465        H468   1.407       .  S
S466        H467   1.404       .  S
C471        C472   1.407       .  A
C471        C476   1.413       .  A
C472        C473   1.376       .  A
C472        H481   1.080       .  S
C473        C474   1.404       .  A
C473        S477   1.810       .  S
C474        C475   1.405       .  A
C475        C476   1.390       .  A
C475        H482   1.085       .  S
C476        S478   1.806       .  S
S477        H480   1.391       .  S
S478        H479   1.400       .  S
C483        C484   1.411       .  A
C483        C488   1.426       .  A
C484        C485   1.378       .  A
C484        H493   1.074       .  S
C485        C486   1.394       .  A
C485        S489   1.801   1_455  S
C486        C487   1.395       .  A
C487        C488   1.390       .  A
C487        H494   1.085       .  S
C488        S490   1.811       .  S
S489        H492   1.404       .  S
S490        H491   1.396       .  S
C495        C496   1.403       .  A
C495        C500   1.424       .  A
C496        C497   1.392       .  A
C496        H505   1.083       .  S
C497        C498   1.410       .  A
C497        S501   1.799       .  S
C498        C499   1.396       .  A
C499        C500   1.394       .  A
C499        H506   1.083       .  S
C500        S502   1.811       .  S
S501        H504   1.408       .  S
S502        H503   1.407       .  S
C507        C508   1.402       .  A
C507        C512   1.405       .  A
C508        C509   1.392       .  A
C508        H517   1.085       .  S
C509        C510   1.412       .  A
C509        S513   1.808       .  S
C510        C511   1.406       .  A
C511        C512   1.387       .  A
C511        H518   1.083       .  S
C512        S514   1.802       .  S
S513        H516   1.402       .  S
S514        H515   1.404       .  S
C519        C520   1.387       .  A
C519        C524   1.405       .  A
C520        C521   1.386       .  A
C520        H529   1.078       .  S
C521        C522   1.416       .  A
C521        S525   1.805       .  S
C522        C523   1.403       .  A
C523        C524   1.391       .  A
C523        H530   1.079       .  S
C524        S526   1.804       .  S
S525        H528   1.397       .  S
S526        H527   1.406       .  S
C531        C532   1.405       .  A
C531        C536   1.421       .  A
C532        C533   1.384       .  A
C532        H541   1.081       .  S
C533        C534   1.400       .  A
C533       S1175   1.803       .  S
C534        C535   1.394       .  A
C535        C536   1.391       .  A
C535        H542   1.084       .  S
C536        S538   1.807       .  S
S537       C1171   1.803       .  S
S537        H540   1.407       .  S
S538        H539   1.400       .  S
C543        C544   1.389       .  A
C543        C548   1.412       .  A
C544        C545   1.379       .  A
C544        H553   1.079       .  S
C545        C546   1.417       .  A
C545        S549   1.809       .  S
C546        C547   1.399       .  A
C547        C548   1.384       .  A
C547        H554   1.079       .  S
C548        S550   1.804       .  S
S549        H552   1.394       .  S
S550        H551   1.399       .  S
C555        C556   1.407       .  A
C555        C560   1.423       .  A
C556        C557   1.385       .  A
C556        H565   1.079       .  S
C557        C558   1.401       .  A
C557        S561   1.802       .  S
C558        C559   1.391       .  A
C559        C560   1.383       .  A
C559        H566   1.083       .  S
C560        S562   1.805       .  S
S561        H564   1.403       .  S
S562        H563   1.397       .  S
C567        C568   1.390       .  A
C567        C572   1.405       .  A
C568        C569   1.393       .  A
C568        H577   1.085       .  S
C569        C570   1.427       .  A
C569        S573   1.805       .  S
C570        C571   1.400       .  A
C571        C572   1.386       .  A
C571        H578   1.078       .  S
C572        S574   1.804       .  S
S573        H576   1.396       .  S
S574        H575   1.407       .  S
C579        C580   1.402       .  A
C579        C584   1.420       .  A
C580        C581   1.384       .  A
C580        H589   1.078       .  S
C581        C582   1.404       .  A
C581        S585   1.806       .  S
C582        C583   1.395       .  A
C583        C584   1.387       .  A
C583        H590   1.085       .  S
C584        S586   1.811       .  S
S585        H588   1.405       .  S
S586        H587   1.394       .  S
C591        C592   1.399       .  A
C591        C596   1.405       .  A
C592        C593   1.384       .  A
C592        H601   1.083       .  S
C593        C594   1.411       .  A
C593        S597   1.808       .  S
C594        C595   1.405       .  A
C595        C596   1.385       .  A
C595        H602   1.084       .  S
C596        S598   1.799       .  S
S597        H600   1.403       .  S
S598        H599   1.400       .  S
C603        C604   1.400       .  A
C603        C608   1.403       .  A
C604        C605   1.396       .  A
C604        H613   1.085       .  S
C605        C606   1.424       .  A
C605        S609   1.812       .  S
C606        C607   1.396       .  A
C607        C608   1.382       .  A
C607        H614   1.074       .  S
C608        S610   1.799       .  S
S609        H612   1.393       .  S
S610        H611   1.407       .  S
C615        C616   1.393       .  A
C615        C620   1.410       .  A
C616        C617   1.390       .  A
C616        H625   1.084       .  S
C617        C618   1.433       .  A
C617        S621   1.812       .  S
C618        C619   1.405       .  A
C619        C620   1.394       .  A
C619        H626   1.084       .  S
C620        S622   1.806       .  S
S621        H624   1.399       .  S
S622        H623   1.407       .  S
C627        C628   1.399       .  A
C627        C632   1.430       .  A
C628        C629   1.382       .  A
C628        H637   1.074       .  S
C629        C630   1.402       .  A
C629        S633   1.806       .  S
C630        C631   1.391       .  A
C631        C632   1.395       .  A
C631        H638   1.084       .  S
C632        S634   1.807       .  S
S633        H636   1.407       .  S
S634        H635   1.395       .  S
C639        C641   1.570       .  S
C639        C643   1.537       .  S
C639        C642   1.545       .  S
C639       C1265   1.515       .  S
C640        C644   1.544       .  S
C640        C646   1.565       .  S
C640        C645   1.541       .  S
C640       C1256   1.514       .  S
C641        C649   1.400       .  A
C641        C644   1.387       .  A
C642        C653   1.395       .  A
C642        C645   1.376       .  A
C643        C657   1.380       .  A
C643        C646   1.388       .  A
C644        C647   1.388       .  A
C645        C651   1.385       .  A
C646        C654   1.403       .  A
C647        N648   1.356       .  A
C647        H660   1.082       .  S
N648        C649   1.366       .  A
N648        C921   1.463       .  S
C649        H650   1.081       .  S
C651        N652   1.360       .  A
C651        H661   1.082       .  S
N652        C653   1.367       .  A
N652        C683   1.463       .  S
C653        H659   1.082       .  S
C654        N655   1.377       .  A
C654        H656   1.082       .  S
N655        C657   1.356       .  A
N655        C739   1.468       .  S
C657        H658   1.083       .  S
N662       C1943   1.360       .  A
N662        C666   1.363       .  A
N662        H694   1.041       .  S
N663        C670   1.362       .  A
N663        C671   1.359       .  A
N664       C1945   1.362       .  A
N664        C668   1.360       .  A
N664        H695   1.041       .  S
N665        C672   1.359       .  A
N665        C673   1.361       .  A
C666        C674   1.385       .  A
C666        C682   1.429       .  A
C667        C683   1.428       .  A
C667        C675   1.385       .  A
C667       N1938   1.360   1_455  A
C668        C676   1.386       .  A
C668        C685   1.426       .  A
C669        C684   1.430       .  A
C669        C677   1.387       .  A
C669       N1940   1.362   1_455  A
C670        C682   1.426       .  A
C670        C678   1.383       .  A
C671        C685   1.431       .  A
C671        C679   1.388       .  A
C672        C680   1.387       .  A
C672        C683   1.428       .  A
C673        C681   1.384       .  A
C673        C684   1.426       .  A
C674       C1951   1.380       .  A
C674        H686   1.082       .  S
C675       C1950   1.380   1_455  A
C675        H687   1.079       .  S
C676       C1953   1.379       .  A
C676        H688   1.082       .  S
C677       C1952   1.379   1_455  A
C677        H689   1.082       .  S
C678        C679   1.378       .  A
C678        H690   1.082       .  S
C679        H691   1.082       .  S
C680        C681   1.378       .  A
C680        H692   1.081       .  S
C681        H693   1.082       .  S
C682        N971   1.470       .  S
C684       N1017   1.469       .  S
C685        N712   1.463       .  S
C696        C698   1.551       .  S
C696        C700   1.530       .  S
C696        C699   1.546       .  S
C696       C1232   1.496       .  S
C697        C701   1.550       .  S
C697        C703   1.548       .  S
C697        C702   1.577       .  S
C697       C1244   1.515       .  S
C698        C706   1.392       .  A
C698        C701   1.384       .  A
C699        C710   1.392       .  A
C699        C702   1.388       .  A
C700        C714   1.380       .  A
C700        C703   1.375       .  A
C701        C704   1.390       .  A
C702        C708   1.403       .  A
C703        C711   1.396       .  A
C704        N705   1.361       .  A
C704        H717   1.082       .  S
N705        C706   1.362       .  A
N705        C887   1.461       .  S
C706        H707   1.081       .  S
C708        N709   1.362       .  A
C708        H718   1.078       .  S
N709        C710   1.361       .  A
N709        C774   1.467       .  S
C710        H716   1.082       .  S
C711        N712   1.370       .  A
C711        H713   1.082       .  S
N712        C714   1.359       .  A
C714        H715   1.082       .  S
N719        C723   1.365       .  A
N719        H751   1.042       .  S
N720        C727   1.359       .  A
N720        C728   1.356       .  A
N721        C725   1.356       .  A
N721        H752   1.040       .  S
N722        C729   1.358       .  A
N722        C730   1.361       .  A
C723        C731   1.387       .  A
C723        C739   1.437       .  A
C724        C740   1.436       .  A
C724        C732   1.387       .  A
C725        C733   1.385       .  A
C725        C742   1.418       .  A
C726        C741   1.423       .  A
C726        C734   1.386       .  A
C727        C739   1.420       .  A
C727        C735   1.385       .  A
C728        C742   1.421       .  A
C728        C736   1.386       .  A
C729        C737   1.386       .  A
C729        C740   1.427       .  A
C730        C738   1.384       .  A
C730        C741   1.426       .  A
C731        H743   1.082       .  S
C732        H744   1.082       .  S
C733        H745   1.082       .  S
C734        H746   1.082       .  S
C735        C736   1.374       .  A
C735        H747   1.081       .  S
C736        H748   1.082       .  S
C737        C738   1.376       .  A
C737        H749   1.082       .  S
C738        H750   1.082       .  S
C740       N1020   1.465       .  S
C741        N803   1.465       .  S
C742        N997   1.451       .  S
N753        C757   1.358       .  A
N753        H785   1.042       .  S
N754        C761   1.361       .  A
N754        C762   1.361       .  A
N755        C759   1.361       .  A
N755        H786   1.042       .  S
N756        C763   1.362       .  A
N756        C764   1.360       .  A
C757        C765   1.385       .  A
C757        C773   1.422       .  A
C758        C774   1.427       .  A
C758        C766   1.387       .  A
C759        C767   1.388       .  A
C759        C776   1.431       .  A
C760        C775   1.427       .  A
C760        C768   1.386       .  A
C761        C773   1.429       .  A
C761        C769   1.386       .  A
C762        C776   1.429       .  A
C762        C770   1.385       .  A
C763        C771   1.385       .  A
C763        C774   1.427       .  A
C764        C772   1.382       .  A
C764        C775   1.427       .  A
C765        H777   1.082       .  S
C766        H778   1.082       .  S
C767        H779   1.082       .  S
C768        H780   1.082       .  S
C769        C770   1.377       .  A
C769        H781   1.082       .  S
C770        H782   1.082       .  S
C771        C772   1.377       .  A
C771        H783   1.082       .  S
C772        H784   1.079       .  S
C773        N967   1.461       .  S
C775        N948   1.465       .  S
C776        N853   1.468       .  S
C787        C789   1.550       .  S
C787        C791   1.564       .  S
C787        C790   1.537       .  S
C787       C1208   1.514       .  S
C788        C792   1.546       .  S
C788        C794   1.538       .  S
C788        C793   1.556       .  S
C788       C1217   1.509       .  S
C789        C797   1.390       .  A
C789        C792   1.385       .  A
C790        C801   1.386       .  A
C790        C793   1.383       .  A
C791        C805   1.397       .  A
C791        C794   1.384       .  A
C792        C795   1.388       .  A
C793        C799   1.393       .  A
C794        C802   1.386       .  A
C795        N796   1.358       .  A
C795        H808   1.082       .  S
N796        C797   1.363       .  A
N796        C889   1.455       .  S
C797        H798   1.082       .  S
C799        N800   1.359       .  A
C799        H809   1.080       .  S
N800        C801   1.360       .  A
N800        C830   1.455       .  S
C801        H807   1.082       .  S
C802        N803   1.362       .  A
C802        H804   1.082       .  S
N803        C805   1.366       .  A
C805        H806   1.081       .  S
N810        C815   1.356       .  A
N810        C814   1.357       .  A
N810        H842   1.041       .  S
N811       C2094   1.356       .  A
N811        C819   1.356       .  A
N812        C817   1.360       .  A
N812        C816   1.361       .  A
N812        H843   1.043       .  S
N813       C2096   1.357       .  A
N813        C821   1.358       .  A
C814        C822   1.386       .  A
C814        C830   1.421       .  A
C815        C831   1.420       .  A
C815        C823   1.386       .  A
C816        C824   1.385       .  A
C816        C833   1.425       .  A
C817        C832   1.425       .  A
C817        C825   1.382       .  A
C818        C830   1.420       .  A
C818        C826   1.385       .  A
C818       N2087   1.356   1_455  A
C819        C833   1.419       .  A
C819        C827   1.385       .  A
C820        C828   1.386       .  A
C820        C831   1.422       .  A
C820       N2089   1.357   1_455  A
C821        C829   1.385       .  A
C821        C832   1.422       .  A
C822        C823   1.379       .  A
C822        H834   1.082       .  S
C823        H835   1.082       .  S
C824        C825   1.379       .  A
C824        H836   1.082       .  S
C825        H837   1.078       .  S
C826       C2103   1.376   1_455  A
C826        H838   1.082       .  S
C827       C2102   1.376       .  A
C827        H839   1.082       .  S
C828       C2105   1.377   1_455  A
C828        H840   1.082       .  S
C829       C2104   1.377       .  A
C829        H841   1.082       .  S
C831        N994   1.454       .  S
C832        N857   1.464       .  S
C833        N951   1.460       .  S
C844        C846   1.563       .  S
C844        C848   1.542       .  S
C844        C847   1.553       .  S
C844       C1193   1.505       .  S
C845        C849   1.563       .  S
C845        C851   1.545       .  S
C845        C850   1.536       .  S
C845       C1184   1.500       .  S
C846        C854   1.395       .  A
C846        C849   1.391       .  A
C847        C858   1.395       .  A
C847        C850   1.378       .  A
C848        C862   1.391       .  A
C848        C851   1.373       .  A
C849        C852   1.397       .  A
C850        C856   1.386       .  A
C851        C859   1.392       .  A
C852        N853   1.363       .  A
C852        H865   1.080       .  S
N853        C854   1.364       .  A
C854        H855   1.081       .  S
C856        N857   1.362       .  A
C856        H866   1.082       .  S
N857        C858   1.367       .  A
C858        H864   1.082       .  S
C859        N860   1.362       .  A
C859        H861   1.082       .  S
N860        C862   1.363       .  A
N860        C923   1.462       .  S
C862        H863   1.082       .  S
N867        C872   1.357       .  A
N867        C871   1.358       .  A
N867        H899   1.041       .  S
N868        C875   1.359   1_556  A
N868        C876   1.359       .  A
N869        C874   1.358       .  A
N869        C873   1.357       .  A
N869        H900   1.042       .  S
N870        C877   1.354   1_556  A
N870        C878   1.354       .  A
C871        C879   1.386       .  A
C871        C887   1.423       .  A
C872        C888   1.423       .  A
C872        C880   1.387       .  A
C873        C881   1.386       .  A
C873        C890   1.420       .  A
C874        C889   1.420       .  A
C874        C882   1.383       .  A
C875        C887   1.426       .  A
C875        C883   1.385       .  A
C876        C890   1.426       .  A
C876        C884   1.385       .  A
C877        C885   1.384       .  A
C877        C888   1.414       .  A
C878        C886   1.381       .  A
C878        C889   1.414       .  A
C879        C880   1.380       .  A
C879        H891   1.082       .  S
C880        H892   1.082       .  S
C881        C882   1.379       .  A
C881        H893   1.082       .  S
C882        H894   1.080       .  S
C883        C884   1.379   1_554  A
C883        H895   1.080       .  S
C884        H896   1.082       .  S
C885        C886   1.374   1_554  A
C885        H897   1.082       .  S
C886        H898   1.079       .  S
C888       N1013   1.452       .  S
C890        N944   1.459       .  S
N901        C906   1.365       .  A
N901        C905   1.361       .  A
N901        H933   1.040       .  S
N902        C909   1.357       .  A
N902        C910   1.360   1_554  A
N903        C908   1.358       .  A
N903        C907   1.361       .  A
N903        H934   1.041       .  S
N904        C911   1.362       .  A
N904        C912   1.359   1_554  A
C905        C913   1.387       .  A
C905        C921   1.433       .  A
C906        C922   1.435       .  A
C906        C914   1.386       .  A
C907        C915   1.386       .  A
C907        C924   1.428       .  A
C908        C923   1.424       .  A
C908        C916   1.386       .  A
C909        C921   1.425       .  A
C909        C917   1.387       .  A
C910        C924   1.424       .  A
C910        C918   1.384       .  A
C911        C919   1.384       .  A
C911        C922   1.427       .  A
C912        C920   1.383       .  A
C912        C923   1.427       .  A
C913        C914   1.384       .  A
C913        H925   1.082       .  S
C914        H926   1.082       .  S
C915        C916   1.381       .  A
C915        H927   1.082       .  S
C916        H928   1.082       .  S
C917        C918   1.376   1_554  A
C917        H929   1.082       .  S
C918        H930   1.082       .  S
C919        C920   1.377   1_554  A
C919        H931   1.082       .  S
C920        H932   1.078       .  S
C922        N974   1.473       .  S
C924        N990   1.467       .  S
C935        C937   1.535       .  S
C935        C939   1.548       .  S
C935        C938   1.560       .  S
C935       C1169   1.505       .  S
C936        C940   1.557       .  S
C936        C942   1.539       .  S
C936        C941   1.555       .  S
C936       C1160   1.508       .  S
C937        C945   1.384       .  A
C937        C940   1.381       .  A
C938        C949   1.397       .  A
C938        C941   1.384       .  A
C939        C953   1.389       .  A
C939        C942   1.382       .  A
C940        C943   1.395       .  A
C941        C947   1.394       .  A
C942        C950   1.385       .  A
C943        N944   1.366       .  A
C943        H956   1.081       .  S
N944        C945   1.359       .  A
C945        H946   1.082       .  S
C947        N948   1.362       .  A
C947        H957   1.082       .  S
N948        C949   1.363       .  A
C949        H955   1.082       .  S
C950        N951   1.361       .  A
C950        H952   1.082       .  S
N951        C953   1.364       .  A
C953        H954   1.081       .  S
C958        C960   1.552       .  S
C958        C962   1.568       .  S
C958        C961   1.539       .  S
C958       C1133   1.511       .  S
C959        C963   1.555       .  S
C959        C965   1.556       .  S
C959        C964   1.549       .  S
C959       C1148   1.512       .  S
C960        C968   1.396       .  A
C960        C963   1.382       .  A
C961        C972   1.388       .  A
C961        C964   1.375       .  A
C962        C976   1.402       .  A
C962        C965   1.393       .  A
C963        C966   1.393       .  A
C964        C970   1.399       .  A
C965        C973   1.392       .  A
C966        N967   1.358       .  A
C966        H979   1.081       .  S
N967        C968   1.363       .  A
C968        H969   1.082       .  S
C970        N971   1.371       .  A
C970        H980   1.082       .  S
N971        C972   1.363       .  A
C972        H978   1.083       .  S
C973        N974   1.361       .  A
C973        H975   1.080       .  S
N974        C976   1.372       .  A
C976        H977   1.082       .  S
C981        C983   1.554       .  S
C981        C985   1.547       .  S
C981        C984   1.532       .  S
C981       C1109   1.504       .  S
C982        C986   1.560       .  S
C982        C988   1.535       .  S
C982        C987   1.558       .  S
C982       C1121   1.509       .  S
C983        C991   1.389       .  A
C983        C986   1.396       .  A
C984        C995   1.384       .  A
C984        C987   1.378       .  A
C985        C999   1.388       .  A
C985        C988   1.370       .  A
C986        C989   1.391       .  A
C987        C993   1.395       .  A
C988        C996   1.388       .  A
C989        N990   1.367       .  A
C989       H1002   1.082       .  S
N990        C991   1.365       .  A
C991        H992   1.081       .  S
C993        N994   1.360       .  A
C993       H1003   1.082       .  S
N994        C995   1.357       .  A
C995       H1001   1.083       .  S
C996        N997   1.359       .  A
C996        H998   1.082       .  S
N997        C999   1.356       .  A
C999       H1000   1.082       .  S
C1004      C1006   1.551       .  S
C1004      C1008   1.545       .  S
C1004      C1007   1.558       .  S
C1004      C1097   1.511       .  S
C1005      C1009   1.541       .  S
C1005      C1011   1.539       .  S
C1005      C1010   1.568       .  S
C1005      C1085   1.510       .  S
C1006      C1014   1.390       .  A
C1006      C1009   1.378       .  A
C1007      C1018   1.396       .  A
C1007      C1010   1.394       .  A
C1008      C1022   1.391       .  A
C1008      C1011   1.378       .  A
C1009      C1012   1.389       .  A
C1010      C1016   1.399       .  A
C1011      C1019   1.389       .  A
C1012      N1013   1.359       .  A
C1012      H1025   1.082       .  S
N1013      C1014   1.356       .  A
C1014      H1015   1.081       .  S
C1016      N1017   1.362       .  A
C1016      H1026   1.080       .  S
N1017      C1018   1.361       .  A
C1018      H1024   1.079       .  S
C1019      N1020   1.363       .  A
C1019      H1021   1.082       .  S
N1020      C1022   1.369       .  A
C1022      H1023   1.082       .  S
O1027      C1035   1.267       .  A
O1027     Co2323   2.010   1_455  S
O1028      C1036   1.279       .  A
O1028     Co1048   2.055       .  S
O1029      C1037   1.245       .  A
O1029     Co1049   1.939   1_556  S
O1030      C1038   1.262       .  A
O1030     Co1050   1.936   1_554  S
O1031      C1037   1.261       .  A
O1031     Co2324   1.999   1_455  S
O1032      C1038   1.283       .  A
O1032     Co1047   2.025       .  S
O1033      C1036   1.266       .  A
O1033     Co1050   1.884       .  S
O1034      C1035   1.252       .  A
O1034     Co1049   1.939       .  S
C1035      C1268   1.443       .  S
C1036      C1181   1.441       .  S
C1037      C1124   1.431       .  S
C1038      C1136   1.470       .  S
O1039      C1052   1.244       .  A
O1040      C1053   1.261       .  A
O1040     Co1686   1.944   1_455  S
O1041      C1054   1.272       .  A
O1042      C1055   1.287       .  A
O1043      C1055   1.265       .  A
O1044      C1054   1.247       .  A
O1044     Co1685   1.930   1_455  S
O1045      C1052   1.256   1_545  A
O1046      C1053   1.274       .  A
Co1047     O2303   2.010       .  S
Co1047     O1682   1.930       .  S
Co1047     O1051   1.967       .  S
Co1048     O2307   1.999       .  S
Co1048     O1678   1.944       .  S
Co1048     O1051   1.973   1_556  S
Co1049     O2327   1.991   1_455  S
Co1050     O1051   1.988   1_556  S
O1051     Co2325   1.991       .  S
C1052      C1241   1.444       .  S
C1053      C1205   1.445       .  S
C1054      C1088   1.466       .  S
C1055      C1172   1.437       .  S
O1056      C1064   1.254       .  A
O1056     Co1076   2.011       .  S
O1057      C1065   1.273       .  A
O1057     Co1077   2.005       .  S
O1058      C1066   1.241       .  A
O1058     Co1078   1.917       .  S
O1059      C1067   1.264       .  A
O1059     Co1079   1.874       .  S
O1060      C1066   1.276       .  A
O1060     Co1077   2.035       .  S
O1061      C1067   1.286       .  A
O1061     Co1076   2.065       .  S
O1062      C1065   1.264       .  A
O1062     Co1079   1.948       .  S
O1063      C1064   1.237       .  A
O1063     Co1078   1.938       .  S
C1064      C1145   1.440       .  S
C1065      C1157   1.445       .  S
C1066      C1229   1.441       .  S
C1067      C1196   1.438       .  S
O1068      C1081   1.262       .  A
O1068     Co1076   1.881       .  S
O1069      C1082   1.245       .  A
O1069     Co1077   1.909       .  S
O1070      C1083   1.282       .  A
O1070     Co1078   2.028       .  S
O1071      C1084   1.255       .  A
O1071     Co1079   1.987       .  S
O1072      C1084   1.245       .  A
O1072     Co1077   1.945       .  S
O1073      C1083   1.259       .  A
O1073     Co1076   1.936       .  S
O1074      C1081   1.284       .  A
O1074     Co1079   2.060       .  S
O1075      C1082   1.271       .  A
O1075     Co1078   2.040       .  S
Co1076     O1080   1.990       .  S
Co1077     O1080   1.977       .  S
Co1078     O1080   1.979       .  S
Co1079     O1080   1.974       .  S
C1081      C1112   1.440       .  S
C1082      C1100   1.457       .  S
C1083      C1253   1.467       .  S
C1084      C1220   1.437       .  S
C1085      C1086   1.395       .  A
C1085      C1090   1.425       .  A
C1086      C1087   1.382       .  A
C1086      H1095   1.077       .  S
C1087      C1088   1.419       .  A
C1087      S1091   1.807       .  S
C1088      C1089   1.400       .  A
C1089      C1090   1.390       .  A
C1089      H1096   1.083       .  S
C1090      S1092   1.816       .  S
S1091      H1094   1.408       .  S
S1092      H1093   1.393       .  S
C1097      C1098   1.404       .  A
C1097      C1102   1.404       .  A
C1098      C1099   1.392       .  A
C1098      H1107   1.082       .  S
C1099      C1100   1.407       .  A
C1099      S1103   1.800       .  S
C1100      C1101   1.409       .  A
C1101      C1102   1.388       .  A
C1101      H1108   1.085       .  S
C1102      S1104   1.808       .  S
S1103      H1106   1.407       .  S
S1104      H1105   1.404       .  S
C1109      C1110   1.407       .  A
C1109      C1114   1.413       .  A
C1110      C1111   1.376       .  A
C1110      H1119   1.080       .  S
C1111      C1112   1.404       .  A
C1111      S1115   1.810       .  S
C1112      C1113   1.405       .  A
C1113      C1114   1.390       .  A
C1113      H1120   1.085       .  S
C1114      S1116   1.806       .  S
S1115      H1118   1.391       .  S
S1116      H1117   1.400       .  S
C1121      C1122   1.411       .  A
C1121      C1126   1.426       .  A
C1122      C1123   1.378       .  A
C1122      H1131   1.074       .  S
C1123      C1124   1.394       .  A
C1123      S1127   1.801   1_455  S
C1124      C1125   1.395       .  A
C1125      C1126   1.390       .  A
C1125      H1132   1.085       .  S
C1126      S1128   1.811       .  S
S1127      H1130   1.404       .  S
S1128      H1129   1.396       .  S
C1133      C1134   1.403       .  A
C1133      C1138   1.424       .  A
C1134      C1135   1.392       .  A
C1134      H1143   1.083       .  S
C1135      C1136   1.410       .  A
C1135      S1139   1.799       .  S
C1136      C1137   1.396       .  A
C1137      C1138   1.394       .  A
C1137      H1144   1.083       .  S
C1138      S1140   1.811       .  S
S1139      H1142   1.408       .  S
S1140      H1141   1.407       .  S
C1145      C1146   1.402       .  A
C1145      C1150   1.405       .  A
C1146      C1147   1.392       .  A
C1146      H1155   1.085       .  S
C1147      C1148   1.412       .  A
C1147      S1151   1.808       .  S
C1148      C1149   1.406       .  A
C1149      C1150   1.387       .  A
C1149      H1156   1.083       .  S
C1150      S1152   1.802       .  S
S1151      H1154   1.402       .  S
S1152      H1153   1.404       .  S
C1157      C1158   1.387       .  A
C1157      C1162   1.405       .  A
C1158      C1159   1.386       .  A
C1158      H1167   1.078       .  S
C1159      C1160   1.416       .  A
C1159      S1163   1.805       .  S
C1160      C1161   1.403       .  A
C1161      C1162   1.391       .  A
C1161      H1168   1.079       .  S
C1162      S1164   1.804       .  S
S1163      H1166   1.397       .  S
S1164      H1165   1.406       .  S
C1169      C1170   1.405       .  A
C1169      C1174   1.421       .  A
C1170      C1171   1.384       .  A
C1170      H1179   1.081       .  S
C1171      C1172   1.400       .  A
C1172      C1173   1.394       .  A
C1173      C1174   1.391       .  A
C1173      H1180   1.084       .  S
C1174      S1176   1.807       .  S
S1175      H1178   1.407       .  S
S1176      H1177   1.400       .  S
C1181      C1182   1.389       .  A
C1181      C1186   1.412       .  A
C1182      C1183   1.379       .  A
C1182      H1191   1.079       .  S
C1183      C1184   1.417       .  A
C1183      S1187   1.809       .  S
C1184      C1185   1.399       .  A
C1185      C1186   1.384       .  A
C1185      H1192   1.079       .  S
C1186      S1188   1.804       .  S
S1187      H1190   1.394       .  S
S1188      H1189   1.399       .  S
C1193      C1194   1.407       .  A
C1193      C1198   1.423       .  A
C1194      C1195   1.385       .  A
C1194      H1203   1.079       .  S
C1195      C1196   1.401       .  A
C1195      S1199   1.802       .  S
C1196      C1197   1.391       .  A
C1197      C1198   1.383       .  A
C1197      H1204   1.083       .  S
C1198      S1200   1.805       .  S
S1199      H1202   1.403       .  S
S1200      H1201   1.397       .  S
C1205      C1206   1.390       .  A
C1205      C1210   1.405       .  A
C1206      C1207   1.393       .  A
C1206      H1215   1.085       .  S
C1207      C1208   1.427       .  A
C1207      S1211   1.805       .  S
C1208      C1209   1.400       .  A
C1209      C1210   1.386       .  A
C1209      H1216   1.078       .  S
C1210      S1212   1.804       .  S
S1211      H1214   1.396       .  S
S1212      H1213   1.407       .  S
C1217      C1218   1.402       .  A
C1217      C1222   1.420       .  A
C1218      C1219   1.384       .  A
C1218      H1227   1.078       .  S
C1219      C1220   1.404       .  A
C1219      S1223   1.806       .  S
C1220      C1221   1.395       .  A
C1221      C1222   1.387       .  A
C1221      H1228   1.085       .  S
C1222      S1224   1.811       .  S
S1223      H1226   1.405       .  S
S1224      H1225   1.394       .  S
C1229      C1230   1.399       .  A
C1229      C1234   1.405       .  A
C1230      C1231   1.384       .  A
C1230      H1239   1.083       .  S
C1231      C1232   1.411       .  A
C1231      S1235   1.808       .  S
C1232      C1233   1.405       .  A
C1233      C1234   1.385       .  A
C1233      H1240   1.084       .  S
C1234      S1236   1.799       .  S
S1235      H1238   1.403       .  S
S1236      H1237   1.400       .  S
C1241      C1242   1.400       .  A
C1241      C1246   1.403       .  A
C1242      C1243   1.396       .  A
C1242      H1251   1.085       .  S
C1243      C1244   1.424       .  A
C1243      S1247   1.812       .  S
C1244      C1245   1.396       .  A
C1245      C1246   1.382       .  A
C1245      H1252   1.074       .  S
C1246      S1248   1.799       .  S
S1247      H1250   1.393       .  S
S1248      H1249   1.407   1_565  S
C1253      C1254   1.393       .  A
C1253      C1258   1.410       .  A
C1254      C1255   1.390       .  A
C1254      H1263   1.084       .  S
C1255      C1256   1.433       .  A
C1255      S1259   1.812       .  S
C1256      C1257   1.405       .  A
C1257      C1258   1.394       .  A
C1257      H1264   1.084       .  S
C1258      S1260   1.806       .  S
S1259      H1262   1.399       .  S
S1260      H1261   1.407       .  S
C1265      C1266   1.399       .  A
C1265      C1270   1.430       .  A
C1266      C1267   1.382       .  A
C1266      H1275   1.074       .  S
C1267      C1268   1.402       .  A
C1267      S1271   1.806       .  S
C1268      C1269   1.391       .  A
C1269      C1270   1.395       .  A
C1269      H1276   1.084       .  S
C1270      S1272   1.807       .  S
S1271      H1274   1.407       .  S
S1272      H1273   1.395       .  S
C1277      C1279   1.570       .  S
C1277      C1281   1.537       .  S
C1277      C1280   1.545       .  S
C1277      C1903   1.515       .  S
C1278      C1282   1.544       .  S
C1278      C1284   1.565       .  S
C1278      C1283   1.541       .  S
C1278      C1894   1.514       .  S
C1279      C1287   1.400       .  A
C1279      C1282   1.387       .  A
C1280      C1291   1.395       .  A
C1280      C1283   1.376       .  A
C1281      C1295   1.380       .  A
C1281      C1284   1.388       .  A
C1282      C1285   1.388       .  A
C1283      C1289   1.385       .  A
C1284      C1292   1.403       .  A
C1285      N1286   1.356       .  A
C1285      H1298   1.082       .  S
N1286      C1287   1.366       .  A
N1286      C1559   1.463       .  S
C1287      H1288   1.081       .  S
C1289      N1290   1.360       .  A
C1289      H1299   1.082       .  S
N1290      C1291   1.367       .  A
N1290      C1321   1.463       .  S
C1291      H1297   1.082       .  S
C1292      N1293   1.377       .  A
C1292      H1294   1.082       .  S
N1293      C1295   1.356       .  A
N1293      C1377   1.468       .  S
C1295      H1296   1.083       .  S
N1300      C1304   1.363       .  A
N1300      H1332   1.041       .  S
N1301      C1308   1.362       .  A
N1301      C1309   1.359       .  A
N1302      C1306   1.360       .  A
N1302      H1333   1.041       .  S
N1303      C1310   1.359       .  A
N1303      C1311   1.361       .  A
C1304      C1312   1.385       .  A
C1304      C1320   1.429       .  A
C1305      C1321   1.428       .  A
C1305      C1313   1.385       .  A
C1306      C1314   1.386       .  A
C1306      C1323   1.426       .  A
C1307      C1322   1.430       .  A
C1307      C1315   1.387       .  A
C1308      C1320   1.426       .  A
C1308      C1316   1.383       .  A
C1309      C1323   1.431       .  A
C1309      C1317   1.388       .  A
C1310      C1318   1.387       .  A
C1310      C1321   1.428       .  A
C1311      C1319   1.384       .  A
C1311      C1322   1.426       .  A
C1312      H1324   1.082       .  S
C1313      H1325   1.079       .  S
C1314      H1326   1.082       .  S
C1315      H1327   1.082       .  S
C1316      C1317   1.378       .  A
C1316      H1328   1.082       .  S
C1317      H1329   1.082       .  S
C1318      C1319   1.378       .  A
C1318      H1330   1.081       .  S
C1319      H1331   1.082       .  S
C1320      N1609   1.470       .  S
C1322      N1655   1.469       .  S
C1323      N1350   1.463       .  S
C1334      C1336   1.551       .  S
C1334      C1338   1.530       .  S
C1334      C1337   1.546       .  S
C1334      C1870   1.496       .  S
C1335      C1339   1.549       .  S
C1335      C1341   1.548       .  S
C1335      C1340   1.577       .  S
C1335      C1882   1.515       .  S
C1336      C1344   1.392       .  A
C1336      C1339   1.384       .  A
C1337      C1348   1.392       .  A
C1337      C1340   1.388       .  A
C1338      C1352   1.380       .  A
C1338      C1341   1.375       .  A
C1339      C1342   1.390       .  A
C1340      C1346   1.403       .  A
C1341      C1349   1.396       .  A
C1342      N1343   1.361       .  A
C1342      H1355   1.082       .  S
N1343      C1344   1.362       .  A
N1343      C1525   1.461       .  S
C1344      H1345   1.081       .  S
C1346      N1347   1.362       .  A
C1346      H1356   1.078       .  S
N1347      C1348   1.361       .  A
N1347      C1412   1.467       .  S
C1348      H1354   1.082       .  S
C1349      N1350   1.370       .  A
C1349      H1351   1.082       .  S
N1350      C1352   1.359       .  A
C1352      H1353   1.082       .  S
N1357      C2000   1.363   1_545  A
N1357      C1361   1.365       .  A
N1357      H1389   1.042       .  S
N1358      C1365   1.359       .  A
N1358      C1366   1.356       .  A
N1359      C2002   1.359   1_545  A
N1359      C1363   1.356       .  A
N1359      H1390   1.040       .  S
N1360      C1367   1.358       .  A
N1360      C1368   1.361       .  A
C1361      C1369   1.387       .  A
C1361      C1377   1.437       .  A
C1362      C1378   1.436       .  A
C1362      C1370   1.387       .  A
C1362      N1995   1.363       .  A
C1363      C1371   1.385       .  A
C1363      C1380   1.418       .  A
C1364      C1379   1.423       .  A
C1364      C1372   1.386       .  A
C1364      N1997   1.359       .  A
C1365      C1377   1.420       .  A
C1365      C1373   1.385       .  A
C1366      C1380   1.421       .  A
C1366      C1374   1.386       .  A
C1367      C1375   1.386       .  A
C1367      C1378   1.427       .  A
C1368      C1376   1.384       .  A
C1368      C1379   1.426       .  A
C1369      C2008   1.384   1_545  A
C1369      H1381   1.082       .  S
C1370      C2007   1.384       .  A
C1370      H1382   1.082       .  S
C1371      C2010   1.379   1_545  A
C1371      H1383   1.082       .  S
C1372      C2009   1.379       .  A
C1372      H1384   1.082       .  S
C1373      C1374   1.374       .  A
C1373      H1385   1.081       .  S
C1374      H1386   1.082       .  S
C1375      C1376   1.376       .  A
C1375      H1387   1.082       .  S
C1376      H1388   1.082       .  S
C1378      N1658   1.465       .  S
C1379      N1441   1.465       .  S
C1380      N1635   1.451       .  S
N1391      C2034   1.360   1_545  A
N1391      C1395   1.358       .  A
N1391      H1423   1.042       .  S
N1392      C1399   1.361       .  A
N1392      C1400   1.361       .  A
N1393      C2036   1.360   1_545  A
N1393      C1397   1.361       .  A
N1393      H1424   1.042       .  S
N1394      C1401   1.362       .  A
N1394      C1402   1.360       .  A
C1395      C1403   1.385       .  A
C1395      C1411   1.422       .  A
C1396      C1412   1.427       .  A
C1396      C1404   1.387       .  A
C1396      N2029   1.360       .  A
C1397      C1405   1.388       .  A
C1397      C1414   1.431       .  A
C1398      C1413   1.427       .  A
C1398      C1406   1.386       .  A
C1398      N2031   1.360       .  A
C1399      C1411   1.429       .  A
C1399      C1407   1.386       .  A
C1400      C1414   1.429       .  A
C1400      C1408   1.385       .  A
C1401      C1409   1.385       .  A
C1401      C1412   1.427       .  A
C1402      C1410   1.382       .  A
C1402      C1413   1.427       .  A
C1403      C2042   1.380   1_545  A
C1403      H1415   1.082       .  S
C1404      C2041   1.380       .  A
C1404      H1416   1.082       .  S
C1405      C2044   1.382   1_545  A
C1405      H1417   1.082       .  S
C1406      C2043   1.382       .  A
C1406      H1418   1.082       .  S
C1407      C1408   1.377       .  A
C1407      H1419   1.082       .  S
C1408      H1420   1.082       .  S
C1409      C1410   1.377       .  A
C1409      H1421   1.082       .  S
C1410      H1422   1.079       .  S
C1411      N1605   1.461       .  S
C1413      N1586   1.465       .  S
C1414      N1491   1.468       .  S
C1425      C1427   1.550       .  S
C1425      C1429   1.564       .  S
C1425      C1428   1.537       .  S
C1425      C1846   1.514       .  S
C1426      C1430   1.546       .  S
C1426      C1432   1.538       .  S
C1426      C1431   1.556       .  S
C1426      C1855   1.509       .  S
C1427      C1435   1.390       .  A
C1427      C1430   1.385       .  A
C1428      C1439   1.386       .  A
C1428      C1431   1.383       .  A
C1429      C1443   1.397       .  A
C1429      C1432   1.384       .  A
C1430      C1433   1.388       .  A
C1431      C1437   1.393       .  A
C1432      C1440   1.386       .  A
C1433      N1434   1.358       .  A
C1433      H1446   1.082       .  S
N1434      C1435   1.363       .  A
N1434      C1527   1.455       .  S
C1435      H1436   1.082       .  S
C1437      N1438   1.359       .  A
C1437      H1447   1.080       .  S
N1438      C1439   1.360       .  A
N1438      C1468   1.455       .  S
C1439      H1445   1.082       .  S
C1440      N1441   1.362       .  A
C1440      H1442   1.082       .  S
N1441      C1443   1.366       .  A
C1443      H1444   1.081       .  S
N1448      C1453   1.356       .  A
N1448      C1452   1.357       .  A
N1448      H1480   1.041       .  S
N1449      C1457   1.356       .  A
N1450      C1455   1.360       .  A
N1450      C1454   1.361       .  A
N1450      H1481   1.043       .  S
N1451      C1459   1.358       .  A
C1452      C1460   1.386       .  A
C1452      C1468   1.421       .  A
C1453      C1469   1.420       .  A
C1453      C1461   1.386       .  A
C1454      C1462   1.385       .  A
C1454      C1471   1.425       .  A
C1455      C1470   1.425       .  A
C1455      C1463   1.382       .  A
C1456      C1468   1.420       .  A
C1456      C1464   1.385       .  A
C1457      C1471   1.419       .  A
C1457      C1465   1.385       .  A
C1458      C1466   1.386       .  A
C1458      C1469   1.422       .  A
C1459      C1467   1.385       .  A
C1459      C1470   1.422       .  A
C1460      C1461   1.379       .  A
C1460      H1472   1.082       .  S
C1461      H1473   1.082       .  S
C1462      C1463   1.379       .  A
C1462      H1474   1.082       .  S
C1463      H1475   1.078       .  S
C1464      H1476   1.082       .  S
C1465      H1477   1.082       .  S
C1466      H1478   1.082       .  S
C1467      H1479   1.082       .  S
C1469      N1632   1.454       .  S
C1470      N1495   1.464       .  S
C1471      N1589   1.460       .  S
C1482      C1484   1.563       .  S
C1482      C1486   1.542       .  S
C1482      C1485   1.553       .  S
C1482      C1831   1.505       .  S
C1483      C1487   1.563       .  S
C1483      C1489   1.545       .  S
C1483      C1488   1.536       .  S
C1483      C1822   1.500       .  S
C1484      C1492   1.395       .  A
C1484      C1487   1.391       .  A
C1485      C1496   1.395       .  A
C1485      C1488   1.378       .  A
C1486      C1500   1.391       .  A
C1486      C1489   1.373       .  A
C1487      C1490   1.397       .  A
C1488      C1494   1.386       .  A
C1489      C1497   1.392       .  A
C1490      N1491   1.363       .  A
C1490      H1503   1.080       .  S
N1491      C1492   1.364       .  A
C1492      H1493   1.081       .  S
C1494      N1495   1.362       .  A
C1494      H1504   1.082       .  S
N1495      C1496   1.367       .  A
C1496      H1502   1.082       .  S
C1497      N1498   1.362       .  A
C1497      H1499   1.082       .  S
N1498      C1500   1.363       .  A
N1498      C1561   1.462       .  S
C1500      H1501   1.082       .  S
N1505      C1510   1.357       .  A
N1505      C1509   1.358       .  A
N1505      H1537   1.041       .  S
N1506      C1513   1.359   1_556  A
N1506      C1514   1.359       .  A
N1507      C1512   1.358       .  A
N1507      C1511   1.357       .  A
N1507      H1538   1.042       .  S
N1508      C1515   1.354   1_556  A
N1508      C1516   1.354       .  A
C1509      C1517   1.386       .  A
C1509      C1525   1.423       .  A
C1510      C1526   1.423       .  A
C1510      C1518   1.387       .  A
C1511      C1519   1.386       .  A
C1511      C1528   1.420       .  A
C1512      C1527   1.420       .  A
C1512      C1520   1.383       .  A
C1513      C1525   1.426       .  A
C1513      C1521   1.385       .  A
C1514      C1528   1.426       .  A
C1514      C1522   1.385       .  A
C1515      C1523   1.384       .  A
C1515      C1526   1.414       .  A
C1516      C1524   1.381       .  A
C1516      C1527   1.414       .  A
C1517      C1518   1.380       .  A
C1517      H1529   1.082       .  S
C1518      H1530   1.082       .  S
C1519      C1520   1.379       .  A
C1519      H1531   1.082       .  S
C1520      H1532   1.080       .  S
C1521      C1522   1.379   1_554  A
C1521      H1533   1.080       .  S
C1522      H1534   1.082       .  S
C1523      C1524   1.374   1_554  A
C1523      H1535   1.082       .  S
C1524      H1536   1.079       .  S
C1526      N1651   1.452       .  S
C1528      N1582   1.459       .  S
N1539      C1544   1.365       .  A
N1539      C1543   1.361       .  A
N1539      H1571   1.040       .  S
N1540      C1547   1.357       .  A
N1540      C1548   1.360   1_554  A
N1541      C1546   1.358       .  A
N1541      C1545   1.361       .  A
N1541      H1572   1.041       .  S
N1542      C1549   1.362       .  A
N1542      C1550   1.359   1_554  A
C1543      C1551   1.387       .  A
C1543      C1559   1.433       .  A
C1544      C1560   1.435       .  A
C1544      C1552   1.386       .  A
C1545      C1553   1.386       .  A
C1545      C1562   1.428       .  A
C1546      C1561   1.424       .  A
C1546      C1554   1.386       .  A
C1547      C1559   1.425       .  A
C1547      C1555   1.387       .  A
C1548      C1562   1.424       .  A
C1548      C1556   1.384       .  A
C1549      C1557   1.384       .  A
C1549      C1560   1.427       .  A
C1550      C1558   1.383       .  A
C1550      C1561   1.427       .  A
C1551      C1552   1.384       .  A
C1551      H1563   1.082       .  S
C1552      H1564   1.082       .  S
C1553      C1554   1.381       .  A
C1553      H1565   1.082       .  S
C1554      H1566   1.082       .  S
C1555      C1556   1.376   1_554  A
C1555      H1567   1.082       .  S
C1556      H1568   1.082       .  S
C1557      C1558   1.377   1_554  A
C1557      H1569   1.082       .  S
C1558      H1570   1.078       .  S
C1560      N1612   1.473       .  S
C1562      N1628   1.467       .  S
C1573      C1575   1.535       .  S
C1573      C1577   1.548       .  S
C1573      C1576   1.560       .  S
C1573      C1807   1.505       .  S
C1574      C1578   1.557       .  S
C1574      C1580   1.539       .  S
C1574      C1579   1.555       .  S
C1574      C1798   1.508       .  S
C1575      C1583   1.384       .  A
C1575      C1578   1.381       .  A
C1576      C1587   1.397       .  A
C1576      C1579   1.384       .  A
C1577      C1591   1.389       .  A
C1577      C1580   1.382       .  A
C1578      C1581   1.395       .  A
C1579      C1585   1.394       .  A
C1580      C1588   1.385       .  A
C1581      N1582   1.366       .  A
C1581      H1594   1.081       .  S
N1582      C1583   1.359       .  A
C1583      H1584   1.082       .  S
C1585      N1586   1.362       .  A
C1585      H1595   1.082       .  S
N1586      C1587   1.363       .  A
C1587      H1593   1.082       .  S
C1588      N1589   1.361       .  A
C1588      H1590   1.082       .  S
N1589      C1591   1.364       .  A
C1591      H1592   1.081       .  S
C1596      C1598   1.552       .  S
C1596      C1600   1.568       .  S
C1596      C1599   1.539       .  S
C1596      C1771   1.511       .  S
C1597      C1601   1.555       .  S
C1597      C1603   1.556       .  S
C1597      C1602   1.549       .  S
C1597      C1786   1.512       .  S
C1598      C1606   1.396       .  A
C1598      C1601   1.382       .  A
C1599      C1610   1.388       .  A
C1599      C1602   1.375       .  A
C1600      C1614   1.402       .  A
C1600      C1603   1.393       .  A
C1601      C1604   1.393       .  A
C1602      C1608   1.399       .  A
C1603      C1611   1.392       .  A
C1604      N1605   1.358       .  A
C1604      H1617   1.081       .  S
N1605      C1606   1.363       .  A
C1606      H1607   1.082       .  S
C1608      N1609   1.371       .  A
C1608      H1618   1.082       .  S
N1609      C1610   1.363       .  A
C1610      H1616   1.083       .  S
C1611      N1612   1.361       .  A
C1611      H1613   1.080       .  S
N1612      C1614   1.372       .  A
C1614      H1615   1.082       .  S
C1619      C1621   1.554       .  S
C1619      C1623   1.547       .  S
C1619      C1622   1.532       .  S
C1619      C1747   1.504       .  S
C1620      C1624   1.560       .  S
C1620      C1626   1.535       .  S
C1620      C1625   1.558       .  S
C1620      C1759   1.509       .  S
C1621      C1629   1.389       .  A
C1621      C1624   1.396       .  A
C1622      C1633   1.384       .  A
C1622      C1625   1.378       .  A
C1623      C1637   1.388       .  A
C1623      C1626   1.370       .  A
C1624      C1627   1.391       .  A
C1625      C1631   1.395       .  A
C1626      C1634   1.388       .  A
C1627      N1628   1.367       .  A
C1627      H1640   1.082       .  S
N1628      C1629   1.365       .  A
C1629      H1630   1.081       .  S
C1631      N1632   1.360       .  A
C1631      H1641   1.082       .  S
N1632      C1633   1.357       .  A
C1633      H1639   1.083       .  S
C1634      N1635   1.359       .  A
C1634      H1636   1.082       .  S
N1635      C1637   1.356       .  A
C1637      H1638   1.082       .  S
C1642      C1644   1.551       .  S
C1642      C1646   1.545       .  S
C1642      C1645   1.558       .  S
C1642      C1735   1.511       .  S
C1643      C1647   1.541       .  S
C1643      C1649   1.539       .  S
C1643      C1648   1.568       .  S
C1643      C1723   1.510       .  S
C1644      C1652   1.390       .  A
C1644      C1647   1.378       .  A
C1645      C1656   1.396       .  A
C1645      C1648   1.394       .  A
C1646      C1660   1.391       .  A
C1646      C1649   1.378       .  A
C1647      C1650   1.389       .  A
C1648      C1654   1.399       .  A
C1649      C1657   1.389       .  A
C1650      N1651   1.359       .  A
C1650      H1663   1.082       .  S
N1651      C1652   1.356       .  A
C1652      H1653   1.081       .  S
C1654      N1655   1.362       .  A
C1654      H1664   1.080       .  S
N1655      C1656   1.361       .  A
C1656      H1662   1.079       .  S
C1657      N1658   1.363       .  A
C1657      H1659   1.082       .  S
N1658      C1660   1.369       .  A
C1660      H1661   1.082       .  S
O1665      C1673   1.267       .  A
O1666      C1674   1.279       .  A
O1666     Co1686   2.055   1_545  S
O1667      C1675   1.245       .  A
O1667     Co1687   1.939   1_556  S
O1668      C1676   1.262       .  A
O1668     Co1688   1.936   1_554  S
O1669      C1675   1.261       .  A
O1670      C1676   1.283       .  A
O1670     Co1685   2.025   1_545  S
O1671      C1674   1.266       .  A
O1671     Co1688   1.884       .  S
O1672      C1673   1.252       .  A
O1672     Co1687   1.939       .  S
C1673      C1906   1.443       .  S
C1674      C1819   1.441       .  S
C1675      C1762   1.431       .  S
C1676      C1774   1.470       .  S
O1677      C1690   1.244       .  A
O1677     Co2323   1.942       .  S
O1678      C1691   1.261       .  A
O1679      C1692   1.272       .  A
O1679     Co2325   2.016       .  S
O1680      C1693   1.287       .  A
O1680     Co2326   2.080       .  S
O1681      C1693   1.265       .  A
O1681     Co2324   1.878       .  S
O1682      C1692   1.247       .  A
O1683      C1690   1.256       .  A
O1683     Co2326   2.006   1_554  S
O1684      C1691   1.274       .  A
O1684     Co2325   2.016   1_556  S
Co1685     O2315   1.942       .  S
Co1685     O1689   1.967   1_565  S
Co1686     O2319   1.878       .  S
Co1686     O1689   1.973   1_566  S
Co1687     O2317   2.016   1_545  S
Co1687     O2322   2.016   1_544  S
Co1688     O2318   2.080   1_545  S
Co1688     O2321   2.006   1_556  S
Co1688     O1689   1.988   1_556  S
C1690      C1879   1.444       .  S
C1691      C1843   1.445       .  S
C1692      C1726   1.466       .  S
C1693      C1810   1.437       .  S
O1694      C1702   1.254       .  A
O1694     Co1714   2.011       .  S
O1695      C1703   1.273       .  A
O1695     Co1715   2.005       .  S
O1696      C1704   1.241       .  A
O1696     Co1716   1.917       .  S
O1697      C1705   1.264       .  A
O1697     Co1717   1.874       .  S
O1698      C1704   1.276       .  A
O1698     Co1715   2.035       .  S
O1699      C1705   1.286       .  A
O1699     Co1714   2.065       .  S
O1700      C1703   1.264       .  A
O1700     Co1717   1.948       .  S
O1701      C1702   1.237       .  A
O1701     Co1716   1.938       .  S
C1702      C1783   1.440       .  S
C1703      C1795   1.445       .  S
C1704      C1867   1.441       .  S
C1705      C1834   1.438       .  S
O1706      C1719   1.262       .  A
O1706     Co1714   1.881       .  S
O1707      C1720   1.245       .  A
O1707     Co1715   1.909       .  S
O1708      C1721   1.282       .  A
O1708     Co1716   2.028       .  S
O1709      C1722   1.255       .  A
O1709     Co1717   1.987       .  S
O1710      C1722   1.245       .  A
O1710     Co1715   1.945       .  S
O1711      C1721   1.259       .  A
O1711     Co1714   1.936       .  S
O1712      C1719   1.284       .  A
O1712     Co1717   2.060       .  S
O1713      C1720   1.271       .  A
O1713     Co1716   2.040       .  S
Co1714     O1718   1.990       .  S
Co1715     O1718   1.977       .  S
Co1716     O1718   1.979       .  S
Co1717     O1718   1.974       .  S
C1719      C1750   1.440       .  S
C1720      C1738   1.457       .  S
C1721      C1891   1.467       .  S
C1722      C1858   1.437       .  S
C1723      C1724   1.395       .  A
C1723      C1728   1.425       .  A
C1724      C1725   1.382       .  A
C1724      H1733   1.077       .  S
C1725      C1726   1.419       .  A
C1725      S1729   1.807       .  S
C1726      C1727   1.400       .  A
C1727      C1728   1.390       .  A
C1727      H1734   1.083       .  S
C1728      S1730   1.816       .  S
S1729      H1732   1.408       .  S
S1730      H1731   1.393       .  S
C1735      C1736   1.404       .  A
C1735      C1740   1.404       .  A
C1736      C1737   1.392       .  A
C1736      H1745   1.082       .  S
C1737      C1738   1.407       .  A
C1737      S1741   1.800       .  S
C1738      C1739   1.409       .  A
C1739      C1740   1.388       .  A
C1739      H1746   1.085       .  S
C1740      S1742   1.808       .  S
S1741      H1744   1.407       .  S
S1742      H1743   1.404       .  S
C1747      C1748   1.407       .  A
C1747      C1752   1.413       .  A
C1748      C1749   1.376       .  A
C1748      H1757   1.080       .  S
C1749      C1750   1.404       .  A
C1749      S1753   1.810       .  S
C1750      C1751   1.405       .  A
C1751      C1752   1.390       .  A
C1751      H1758   1.085       .  S
C1752      S1754   1.806       .  S
S1753      H1756   1.391       .  S
S1754      H1755   1.400       .  S
C1759      C1760   1.411       .  A
C1759      C1764   1.426       .  A
C1760      C1761   1.378       .  A
C1760      H1769   1.074       .  S
C1761      C1762   1.394       .  A
C1761      S1765   1.801       .  S
C1762      C1763   1.395       .  A
C1763      C1764   1.390       .  A
C1763      H1770   1.085       .  S
C1764      S1766   1.811       .  S
S1765      H1768   1.404       .  S
S1766      H1767   1.396       .  S
C1771      C1772   1.403       .  A
C1771      C1776   1.424       .  A
C1772      C1773   1.392       .  A
C1772      H1781   1.083       .  S
C1773      C1774   1.410       .  A
C1773      S1777   1.799       .  S
C1774      C1775   1.396       .  A
C1775      C1776   1.394       .  A
C1775      H1782   1.083       .  S
C1776      S1778   1.811       .  S
S1777      H1780   1.408       .  S
S1778      H1779   1.407       .  S
C1783      C1784   1.402       .  A
C1783      C1788   1.405       .  A
C1784      C1785   1.392       .  A
C1784      H1793   1.085       .  S
C1785      C1786   1.412       .  A
C1785      S1789   1.808       .  S
C1786      C1787   1.406       .  A
C1787      C1788   1.387       .  A
C1787      H1794   1.083       .  S
C1788      S1790   1.802       .  S
S1789      H1792   1.402       .  S
S1790      H1791   1.404       .  S
C1795      C1796   1.387       .  A
C1795      C1800   1.405       .  A
C1796      C1797   1.386       .  A
C1796      H1805   1.078       .  S
C1797      C1798   1.416       .  A
C1797      S1801   1.805       .  S
C1798      C1799   1.403       .  A
C1799      C1800   1.391       .  A
C1799      H1806   1.079       .  S
C1800      S1802   1.804       .  S
S1801      H1804   1.397       .  S
S1802      H1803   1.406       .  S
C1807      C1808   1.405       .  A
C1807      C1812   1.421       .  A
C1808      C1809   1.384       .  A
C1808      H1817   1.081       .  S
C1809      C1810   1.400       .  A
C1809      S2451   1.803       .  S
C1810      C1811   1.394       .  A
C1811      C1812   1.391       .  A
C1811      H1818   1.084       .  S
C1812      S1814   1.807       .  S
S1813      C2447   1.803       .  S
S1813      H1816   1.407       .  S
S1814      H1815   1.400       .  S
C1819      C1820   1.389       .  A
C1819      C1824   1.412       .  A
C1820      C1821   1.379       .  A
C1820      H1829   1.079       .  S
C1821      C1822   1.417       .  A
C1821      S1825   1.809       .  S
C1822      C1823   1.399       .  A
C1823      C1824   1.384       .  A
C1823      H1830   1.079       .  S
C1824      S1826   1.804       .  S
S1825      H1828   1.394       .  S
S1826      H1827   1.399       .  S
C1831      C1832   1.407       .  A
C1831      C1836   1.423       .  A
C1832      C1833   1.385       .  A
C1832      H1841   1.079       .  S
C1833      C1834   1.401       .  A
C1833      S1837   1.802       .  S
C1834      C1835   1.391       .  A
C1835      C1836   1.383       .  A
C1835      H1842   1.083       .  S
C1836      S1838   1.805       .  S
S1837      H1840   1.403       .  S
S1838      H1839   1.397       .  S
C1843      C1844   1.390       .  A
C1843      C1848   1.405       .  A
C1844      C1845   1.393       .  A
C1844      H1853   1.085       .  S
C1845      C1846   1.427       .  A
C1845      S1849   1.805       .  S
C1846      C1847   1.400       .  A
C1847      C1848   1.386       .  A
C1847      H1854   1.078       .  S
C1848      S1850   1.804       .  S
S1849      H1852   1.396       .  S
S1850      H1851   1.407       .  S
C1855      C1856   1.402       .  A
C1855      C1860   1.420       .  A
C1856      C1857   1.384       .  A
C1856      H1865   1.078       .  S
C1857      C1858   1.404       .  A
C1857      S1861   1.806       .  S
C1858      C1859   1.395       .  A
C1859      C1860   1.387       .  A
C1859      H1866   1.085       .  S
C1860      S1862   1.811       .  S
S1861      H1864   1.405       .  S
S1862      H1863   1.394       .  S
C1867      C1868   1.399       .  A
C1867      C1872   1.405       .  A
C1868      C1869   1.384       .  A
C1868      H1877   1.083       .  S
C1869      C1870   1.411       .  A
C1869      S1873   1.808       .  S
C1870      C1871   1.405       .  A
C1871      C1872   1.385       .  A
C1871      H1878   1.084       .  S
C1872      S1874   1.799       .  S
S1873      H1876   1.403       .  S
S1874      H1875   1.400       .  S
C1879      C1880   1.400       .  A
C1879      C1884   1.403       .  A
C1880      C1881   1.396       .  A
C1880      H1889   1.085       .  S
C1881      C1882   1.424       .  A
C1881      S1885   1.812       .  S
C1882      C1883   1.396       .  A
C1883      C1884   1.382       .  A
C1883      H1890   1.074       .  S
C1884      S1886   1.799       .  S
S1885      H1888   1.393       .  S
S1886      H1887   1.407       .  S
C1891      C1892   1.393       .  A
C1891      C1896   1.410       .  A
C1892      C1893   1.390       .  A
C1892      H1901   1.084       .  S
C1893      C1894   1.433       .  A
C1893      S1897   1.812       .  S
C1894      C1895   1.405       .  A
C1895      C1896   1.394       .  A
C1895      H1902   1.084       .  S
C1896      S1898   1.806       .  S
S1897      H1900   1.399       .  S
S1898      H1899   1.407       .  S
C1903      C1904   1.399       .  A
C1903      C1908   1.430       .  A
C1904      C1905   1.382       .  A
C1904      H1913   1.074       .  S
C1905      C1906   1.402       .  A
C1905      S1909   1.806       .  S
C1906      C1907   1.391       .  A
C1907      C1908   1.395       .  A
C1907      H1914   1.084       .  S
C1908      S1910   1.807       .  S
S1909      H1912   1.407       .  S
S1910      H1911   1.395       .  S
C1915      C1917   1.570       .  S
C1915      C1919   1.537       .  S
C1915      C1918   1.545       .  S
C1915      C2541   1.515       .  S
C1916      C1920   1.544       .  S
C1916      C1922   1.565       .  S
C1916      C1921   1.541       .  S
C1916      C2532   1.514       .  S
C1917      C1925   1.400       .  A
C1917      C1920   1.387       .  A
C1918      C1929   1.395       .  A
C1918      C1921   1.376       .  A
C1919      C1933   1.380       .  A
C1919      C1922   1.388       .  A
C1920      C1923   1.388       .  A
C1921      C1927   1.385       .  A
C1922      C1930   1.403       .  A
C1923      N1924   1.356       .  A
C1923      H1936   1.082       .  S
N1924      C1925   1.366       .  A
N1924      C2197   1.463       .  S
C1925      H1926   1.081       .  S
C1927      N1928   1.360       .  A
C1927      H1937   1.082       .  S
N1928      C1929   1.367       .  A
N1928      C1959   1.463       .  S
C1929      H1935   1.082       .  S
C1930      N1931   1.377       .  A
C1930      H1932   1.082       .  S
N1931      C1933   1.356       .  A
N1931      C2015   1.468       .  S
C1933      H1934   1.083       .  S
N1938      C1942   1.363       .  A
N1938      H1970   1.041       .  S
N1939      C1946   1.362       .  A
N1939      C1947   1.359       .  A
N1940      C1944   1.360       .  A
N1940      H1971   1.041       .  S
N1941      C1948   1.359       .  A
N1941      C1949   1.361       .  A
C1942      C1950   1.385       .  A
C1942      C1958   1.429       .  A
C1943      C1959   1.428       .  A
C1943      C1951   1.385       .  A
C1944      C1952   1.386       .  A
C1944      C1961   1.426       .  A
C1945      C1960   1.430       .  A
C1945      C1953   1.387       .  A
C1946      C1958   1.426       .  A
C1946      C1954   1.383       .  A
C1947      C1961   1.431       .  A
C1947      C1955   1.388       .  A
C1948      C1956   1.387       .  A
C1948      C1959   1.428       .  A
C1949      C1957   1.384       .  A
C1949      C1960   1.426       .  A
C1950      H1962   1.082       .  S
C1951      H1963   1.079       .  S
C1952      H1964   1.082       .  S
C1953      H1965   1.082       .  S
C1954      C1955   1.378       .  A
C1954      H1966   1.082       .  S
C1955      H1967   1.082       .  S
C1956      C1957   1.378       .  A
C1956      H1968   1.081       .  S
C1957      H1969   1.082       .  S
C1958      N2247   1.470       .  S
C1960      N2293   1.469       .  S
C1961      N1988   1.463       .  S
C1972      C1974   1.551       .  S
C1972      C1976   1.530       .  S
C1972      C1975   1.546       .  S
C1972      C2508   1.496       .  S
C1973      C1977   1.550       .  S
C1973      C1979   1.548       .  S
C1973      C1978   1.577       .  S
C1973      C2520   1.515       .  S
C1974      C1982   1.392       .  A
C1974      C1977   1.384       .  A
C1975      C1986   1.392       .  A
C1975      C1978   1.388       .  A
C1976      C1990   1.380       .  A
C1976      C1979   1.375       .  A
C1977      C1980   1.390       .  A
C1978      C1984   1.403       .  A
C1979      C1987   1.396       .  A
C1980      N1981   1.361       .  A
C1980      H1993   1.082       .  S
N1981      C1982   1.362       .  A
N1981      C2163   1.461       .  S
C1982      H1983   1.081       .  S
C1984      N1985   1.362       .  A
C1984      H1994   1.078       .  S
N1985      C1986   1.361       .  A
N1985      C2050   1.467       .  S
C1986      H1992   1.082       .  S
C1987      N1988   1.370       .  A
C1987      H1989   1.082       .  S
N1988      C1990   1.359       .  A
C1990      H1991   1.082       .  S
N1995      C1999   1.365       .  A
N1995      H2027   1.042       .  S
N1996      C2003   1.359       .  A
N1996      C2004   1.356       .  A
N1997      C2001   1.356       .  A
N1997      H2028   1.040       .  S
N1998      C2005   1.358       .  A
N1998      C2006   1.361       .  A
C1999      C2007   1.387       .  A
C1999      C2015   1.437       .  A
C2000      C2016   1.436       .  A
C2000      C2008   1.387       .  A
C2001      C2009   1.385       .  A
C2001      C2018   1.418       .  A
C2002      C2017   1.423       .  A
C2002      C2010   1.386       .  A
C2003      C2015   1.420       .  A
C2003      C2011   1.385       .  A
C2004      C2018   1.421       .  A
C2004      C2012   1.386       .  A
C2005      C2013   1.386       .  A
C2005      C2016   1.427       .  A
C2006      C2014   1.384       .  A
C2006      C2017   1.426       .  A
C2007      H2019   1.082       .  S
C2008      H2020   1.082       .  S
C2009      H2021   1.082       .  S
C2010      H2022   1.082       .  S
C2011      C2012   1.374       .  A
C2011      H2023   1.081       .  S
C2012      H2024   1.082       .  S
C2013      C2014   1.376       .  A
C2013      H2025   1.082       .  S
C2014      H2026   1.082       .  S
C2016      N2296   1.465       .  S
C2017      N2079   1.465       .  S
C2018      N2273   1.451       .  S
N2029      C2033   1.358       .  A
N2029      H2061   1.042       .  S
N2030      C2037   1.361       .  A
N2030      C2038   1.361       .  A
N2031      C2035   1.361       .  A
N2031      H2062   1.042       .  S
N2032      C2039   1.362       .  A
N2032      C2040   1.360       .  A
C2033      C2041   1.385       .  A
C2033      C2049   1.422       .  A
C2034      C2050   1.427       .  A
C2034      C2042   1.387       .  A
C2035      C2043   1.388       .  A
C2035      C2052   1.431       .  A
C2036      C2051   1.427       .  A
C2036      C2044   1.386       .  A
C2037      C2049   1.429       .  A
C2037      C2045   1.386       .  A
C2038      C2052   1.429       .  A
C2038      C2046   1.385       .  A
C2039      C2047   1.385       .  A
C2039      C2050   1.427       .  A
C2040      C2048   1.382       .  A
C2040      C2051   1.427       .  A
C2041      H2053   1.082       .  S
C2042      H2054   1.082       .  S
C2043      H2055   1.082       .  S
C2044      H2056   1.082       .  S
C2045      C2046   1.377       .  A
C2045      H2057   1.082       .  S
C2046      H2058   1.082       .  S
C2047      C2048   1.377       .  A
C2047      H2059   1.082       .  S
C2048      H2060   1.079       .  S
C2049      N2243   1.461       .  S
C2051      N2224   1.465       .  S
C2052      N2129   1.468       .  S
C2063      C2065   1.550       .  S
C2063      C2067   1.564       .  S
C2063      C2066   1.537       .  S
C2063      C2484   1.514       .  S
C2064      C2068   1.546       .  S
C2064      C2070   1.538       .  S
C2064      C2069   1.556       .  S
C2064      C2493   1.509       .  S
C2065      C2073   1.390       .  A
C2065      C2068   1.385       .  A
C2066      C2077   1.386       .  A
C2066      C2069   1.383       .  A
C2067      C2081   1.397       .  A
C2067      C2070   1.384       .  A
C2068      C2071   1.388       .  A
C2069      C2075   1.393       .  A
C2070      C2078   1.386       .  A
C2071      N2072   1.358       .  A
C2071      H2084   1.082       .  S
N2072      C2073   1.363       .  A
N2072      C2165   1.455       .  S
C2073      H2074   1.082       .  S
C2075      N2076   1.359       .  A
C2075      H2085   1.080       .  S
N2076      C2077   1.360       .  A
N2076      C2106   1.455       .  S
C2077      H2083   1.082       .  S
C2078      N2079   1.362       .  A
C2078      H2080   1.082       .  S
N2079      C2081   1.366       .  A
C2081      H2082   1.081       .  S
N2086      C2091   1.356       .  A
N2086      C2090   1.357       .  A
N2086      H2118   1.041       .  S
N2087      C2095   1.356       .  A
N2088      C2093   1.360       .  A
N2088      C2092   1.361       .  A
N2088      H2119   1.043       .  S
N2089      C2097   1.358       .  A
C2090      C2098   1.386       .  A
C2090      C2106   1.421       .  A
C2091      C2107   1.420       .  A
C2091      C2099   1.386       .  A
C2092      C2100   1.385       .  A
C2092      C2109   1.425       .  A
C2093      C2108   1.425       .  A
C2093      C2101   1.382       .  A
C2094      C2106   1.420       .  A
C2094      C2102   1.385       .  A
C2095      C2109   1.419       .  A
C2095      C2103   1.385       .  A
C2096      C2104   1.386       .  A
C2096      C2107   1.422       .  A
C2097      C2105   1.385       .  A
C2097      C2108   1.422       .  A
C2098      C2099   1.379       .  A
C2098      H2110   1.082       .  S
C2099      H2111   1.082       .  S
C2100      C2101   1.379       .  A
C2100      H2112   1.082       .  S
C2101      H2113   1.078       .  S
C2102      H2114   1.082       .  S
C2103      H2115   1.082       .  S
C2104      H2116   1.082       .  S
C2105      H2117   1.082       .  S
C2107      N2270   1.454       .  S
C2108      N2133   1.464       .  S
C2109      N2227   1.460       .  S
C2120      C2122   1.563       .  S
C2120      C2124   1.542       .  S
C2120      C2123   1.553       .  S
C2120      C2469   1.505       .  S
C2121      C2125   1.563       .  S
C2121      C2127   1.545       .  S
C2121      C2126   1.536       .  S
C2121      C2460   1.500       .  S
C2122      C2130   1.395       .  A
C2122      C2125   1.391       .  A
C2123      C2134   1.395       .  A
C2123      C2126   1.378       .  A
C2124      C2138   1.391       .  A
C2124      C2127   1.373       .  A
C2125      C2128   1.397       .  A
C2126      C2132   1.386       .  A
C2127      C2135   1.392       .  A
C2128      N2129   1.363       .  A
C2128      H2141   1.080       .  S
N2129      C2130   1.364       .  A
C2130      H2131   1.081       .  S
C2132      N2133   1.362       .  A
C2132      H2142   1.082       .  S
N2133      C2134   1.367       .  A
C2134      H2140   1.082       .  S
C2135      N2136   1.362       .  A
C2135      H2137   1.082       .  S
N2136      C2138   1.363       .  A
N2136      C2199   1.462       .  S
C2138      H2139   1.082       .  S
N2143      C2148   1.357       .  A
N2143      C2147   1.358       .  A
N2143      H2175   1.041       .  S
N2144      C2151   1.359   1_556  A
N2144      C2152   1.359       .  A
N2145      C2150   1.358       .  A
N2145      C2149   1.357       .  A
N2145      H2176   1.042       .  S
N2146      C2153   1.354   1_556  A
N2146      C2154   1.354       .  A
C2147      C2155   1.386       .  A
C2147      C2163   1.423       .  A
C2148      C2164   1.423       .  A
C2148      C2156   1.387       .  A
C2149      C2157   1.386       .  A
C2149      C2166   1.420       .  A
C2150      C2165   1.420       .  A
C2150      C2158   1.383       .  A
C2151      C2163   1.426       .  A
C2151      C2159   1.385       .  A
C2152      C2166   1.426       .  A
C2152      C2160   1.385       .  A
C2153      C2161   1.384       .  A
C2153      C2164   1.414       .  A
C2154      C2162   1.381       .  A
C2154      C2165   1.414       .  A
C2155      C2156   1.380       .  A
C2155      H2167   1.082       .  S
C2156      H2168   1.082       .  S
C2157      C2158   1.379       .  A
C2157      H2169   1.082       .  S
C2158      H2170   1.080       .  S
C2159      C2160   1.379   1_554  A
C2159      H2171   1.080       .  S
C2160      H2172   1.082       .  S
C2161      C2162   1.374   1_554  A
C2161      H2173   1.082       .  S
C2162      H2174   1.079       .  S
C2164      N2289   1.452       .  S
C2166      N2220   1.459       .  S
N2177      C2182   1.365       .  A
N2177      C2181   1.361       .  A
N2177      H2209   1.040       .  S
N2178      C2185   1.357       .  A
N2178      C2186   1.360   1_554  A
N2179      C2184   1.358       .  A
N2179      C2183   1.361       .  A
N2179      H2210   1.041       .  S
N2180      C2187   1.362       .  A
N2180      C2188   1.359   1_554  A
C2181      C2189   1.387       .  A
C2181      C2197   1.433       .  A
C2182      C2198   1.435       .  A
C2182      C2190   1.386       .  A
C2183      C2191   1.386       .  A
C2183      C2200   1.428       .  A
C2184      C2199   1.424       .  A
C2184      C2192   1.386       .  A
C2185      C2197   1.425       .  A
C2185      C2193   1.387       .  A
C2186      C2200   1.424       .  A
C2186      C2194   1.384       .  A
C2187      C2195   1.384       .  A
C2187      C2198   1.427       .  A
C2188      C2196   1.383       .  A
C2188      C2199   1.427       .  A
C2189      C2190   1.384       .  A
C2189      H2201   1.082       .  S
C2190      H2202   1.082       .  S
C2191      C2192   1.381       .  A
C2191      H2203   1.082       .  S
C2192      H2204   1.082       .  S
C2193      C2194   1.376   1_554  A
C2193      H2205   1.082       .  S
C2194      H2206   1.082       .  S
C2195      C2196   1.377   1_554  A
C2195      H2207   1.082       .  S
C2196      H2208   1.078       .  S
C2198      N2250   1.473       .  S
C2200      N2266   1.467       .  S
C2211      C2213   1.535       .  S
C2211      C2215   1.548       .  S
C2211      C2214   1.560       .  S
C2211      C2445   1.505       .  S
C2212      C2216   1.557       .  S
C2212      C2218   1.539       .  S
C2212      C2217   1.555       .  S
C2212      C2436   1.508       .  S
C2213      C2221   1.384       .  A
C2213      C2216   1.381       .  A
C2214      C2225   1.397       .  A
C2214      C2217   1.384       .  A
C2215      C2229   1.389       .  A
C2215      C2218   1.382       .  A
C2216      C2219   1.395       .  A
C2217      C2223   1.394       .  A
C2218      C2226   1.385       .  A
C2219      N2220   1.366       .  A
C2219      H2232   1.081       .  S
N2220      C2221   1.359       .  A
C2221      H2222   1.082       .  S
C2223      N2224   1.362       .  A
C2223      H2233   1.082       .  S
N2224      C2225   1.363       .  A
C2225      H2231   1.082       .  S
C2226      N2227   1.361       .  A
C2226      H2228   1.082       .  S
N2227      C2229   1.364       .  A
C2229      H2230   1.081       .  S
C2234      C2236   1.552       .  S
C2234      C2238   1.568       .  S
C2234      C2237   1.539       .  S
C2234      C2409   1.511       .  S
C2235      C2239   1.555       .  S
C2235      C2241   1.556       .  S
C2235      C2240   1.549       .  S
C2235      C2424   1.512       .  S
C2236      C2244   1.396       .  A
C2236      C2239   1.382       .  A
C2237      C2248   1.388       .  A
C2237      C2240   1.375       .  A
C2238      C2252   1.402       .  A
C2238      C2241   1.393       .  A
C2239      C2242   1.393       .  A
C2240      C2246   1.399       .  A
C2241      C2249   1.392       .  A
C2242      N2243   1.358       .  A
C2242      H2255   1.081       .  S
N2243      C2244   1.363       .  A
C2244      H2245   1.082       .  S
C2246      N2247   1.371       .  A
C2246      H2256   1.082       .  S
N2247      C2248   1.363       .  A
C2248      H2254   1.083       .  S
C2249      N2250   1.361       .  A
C2249      H2251   1.080       .  S
N2250      C2252   1.372       .  A
C2252      H2253   1.082       .  S
C2257      C2259   1.554       .  S
C2257      C2261   1.547       .  S
C2257      C2260   1.532       .  S
C2257      C2385   1.504       .  S
C2258      C2262   1.560       .  S
C2258      C2264   1.535       .  S
C2258      C2263   1.558       .  S
C2258      C2397   1.509       .  S
C2259      C2267   1.389       .  A
C2259      C2262   1.396       .  A
C2260      C2271   1.384       .  A
C2260      C2263   1.378       .  A
C2261      C2275   1.388       .  A
C2261      C2264   1.370       .  A
C2262      C2265   1.391       .  A
C2263      C2269   1.395       .  A
C2264      C2272   1.388       .  A
C2265      N2266   1.367       .  A
C2265      H2278   1.082       .  S
N2266      C2267   1.365       .  A
C2267      H2268   1.081       .  S
C2269      N2270   1.360       .  A
C2269      H2279   1.082       .  S
N2270      C2271   1.357       .  A
C2271      H2277   1.083       .  S
C2272      N2273   1.359       .  A
C2272      H2274   1.082       .  S
N2273      C2275   1.356       .  A
C2275      H2276   1.082       .  S
C2280      C2282   1.551       .  S
C2280      C2284   1.545       .  S
C2280      C2283   1.558       .  S
C2280      C2373   1.511       .  S
C2281      C2285   1.541       .  S
C2281      C2287   1.539       .  S
C2281      C2286   1.568       .  S
C2281      C2361   1.510       .  S
C2282      C2290   1.390       .  A
C2282      C2285   1.378       .  A
C2283      C2294   1.396       .  A
C2283      C2286   1.394       .  A
C2284      C2298   1.391       .  A
C2284      C2287   1.378       .  A
C2285      C2288   1.389       .  A
C2286      C2292   1.399       .  A
C2287      C2295   1.389       .  A
C2288      N2289   1.359       .  A
C2288      H2301   1.082       .  S
N2289      C2290   1.356       .  A
C2290      H2291   1.081       .  S
C2292      N2293   1.362       .  A
C2292      H2302   1.080       .  S
N2293      C2294   1.361       .  A
C2294      H2300   1.079       .  S
C2295      N2296   1.363       .  A
C2295      H2297   1.082       .  S
N2296      C2298   1.369       .  A
C2298      H2299   1.082       .  S
O2303      C2311   1.267       .  A
O2304      C2312   1.279       .  A
O2304     Co2324   2.055       .  S
O2305      C2313   1.245       .  A
O2305     Co2325   1.939   1_556  S
O2306      C2314   1.262       .  A
O2306     Co2326   1.936   1_554  S
O2307      C2313   1.261       .  A
O2308      C2314   1.283       .  A
O2308     Co2323   2.025       .  S
O2309      C2312   1.266       .  A
O2309     Co2326   1.884       .  S
O2310      C2311   1.252       .  A
O2310     Co2325   1.939       .  S
C2311      C2544   1.443       .  S
C2312      C2457   1.441       .  S
C2313      C2400   1.431       .  S
C2314      C2412   1.470       .  S
O2315      C2328   1.244       .  A
O2316      C2329   1.261       .  A
O2317      C2330   1.272       .  A
O2318      C2331   1.287       .  A
O2319      C2331   1.265       .  A
O2320      C2330   1.247       .  A
O2321      C2328   1.256   1_545  A
O2322      C2329   1.274       .  A
Co2323     O2327   1.967       .  S
Co2324     O2327   1.973   1_556  S
Co2326     O2327   1.988   1_556  S
C2328      C2517   1.444       .  S
C2329      C2481   1.445       .  S
C2330      C2364   1.466       .  S
C2331      C2448   1.437       .  S
O2332      C2340   1.254       .  A
O2332     Co2352   2.011       .  S
O2333      C2341   1.273       .  A
O2333     Co2353   2.005       .  S
O2334      C2342   1.241       .  A
O2334     Co2354   1.917       .  S
O2335      C2343   1.264       .  A
O2335     Co2355   1.874       .  S
O2336      C2342   1.276       .  A
O2336     Co2353   2.035       .  S
O2337      C2343   1.286       .  A
O2337     Co2352   2.065       .  S
O2338      C2341   1.264       .  A
O2338     Co2355   1.948       .  S
O2339      C2340   1.237       .  A
O2339     Co2354   1.938       .  S
C2340      C2421   1.440       .  S
C2341      C2433   1.445       .  S
C2342      C2505   1.441       .  S
C2343      C2472   1.438       .  S
O2344      C2357   1.262       .  A
O2344     Co2352   1.881       .  S
O2345      C2358   1.245       .  A
O2345     Co2353   1.909       .  S
O2346      C2359   1.282       .  A
O2346     Co2354   2.028       .  S
O2347      C2360   1.255       .  A
O2347     Co2355   1.987       .  S
O2348      C2360   1.245       .  A
O2348     Co2353   1.945       .  S
O2349      C2359   1.259       .  A
O2349     Co2352   1.936       .  S
O2350      C2357   1.284       .  A
O2350     Co2355   2.060       .  S
O2351      C2358   1.271       .  A
O2351     Co2354   2.040       .  S
Co2352     O2356   1.990       .  S
Co2353     O2356   1.977       .  S
Co2354     O2356   1.979       .  S
Co2355     O2356   1.974       .  S
C2357      C2388   1.440       .  S
C2358      C2376   1.457       .  S
C2359      C2529   1.467       .  S
C2360      C2496   1.437       .  S
C2361      C2362   1.395       .  A
C2361      C2366   1.425       .  A
C2362      C2363   1.382       .  A
C2362      H2371   1.077       .  S
C2363      C2364   1.419       .  A
C2363      S2367   1.807       .  S
C2364      C2365   1.400       .  A
C2365      C2366   1.390       .  A
C2365      H2372   1.083       .  S
C2366      S2368   1.816       .  S
S2367      H2370   1.408       .  S
S2368      H2369   1.393       .  S
C2373      C2374   1.404       .  A
C2373      C2378   1.404       .  A
C2374      C2375   1.392       .  A
C2374      H2383   1.082       .  S
C2375      C2376   1.407       .  A
C2375      S2379   1.800       .  S
C2376      C2377   1.409       .  A
C2377      C2378   1.388       .  A
C2377      H2384   1.085       .  S
C2378      S2380   1.808       .  S
S2379      H2382   1.407       .  S
S2380      H2381   1.404       .  S
C2385      C2386   1.407       .  A
C2385      C2390   1.413       .  A
C2386      C2387   1.376       .  A
C2386      H2395   1.080       .  S
C2387      C2388   1.404       .  A
C2387      S2391   1.810       .  S
C2388      C2389   1.405       .  A
C2389      C2390   1.390       .  A
C2389      H2396   1.085       .  S
C2390      S2392   1.806       .  S
S2391      H2394   1.391       .  S
S2392      H2393   1.400       .  S
C2397      C2398   1.411       .  A
C2397      C2402   1.426       .  A
C2398      C2399   1.378       .  A
C2398      H2407   1.074       .  S
C2399      C2400   1.394       .  A
C2399      S2403   1.801       .  S
C2400      C2401   1.395       .  A
C2401      C2402   1.390       .  A
C2401      H2408   1.085       .  S
C2402      S2404   1.811       .  S
S2403      H2406   1.404       .  S
S2404      H2405   1.396       .  S
C2409      C2410   1.403       .  A
C2409      C2414   1.424       .  A
C2410      C2411   1.392       .  A
C2410      H2419   1.083       .  S
C2411      C2412   1.410       .  A
C2411      S2415   1.799       .  S
C2412      C2413   1.396       .  A
C2413      C2414   1.394       .  A
C2413      H2420   1.083       .  S
C2414      S2416   1.811       .  S
S2415      H2418   1.408       .  S
S2416      H2417   1.407       .  S
C2421      C2422   1.402       .  A
C2421      C2426   1.405       .  A
C2422      C2423   1.392       .  A
C2422      H2431   1.085       .  S
C2423      C2424   1.412       .  A
C2423      S2427   1.808       .  S
C2424      C2425   1.406       .  A
C2425      C2426   1.387       .  A
C2425      H2432   1.083       .  S
C2426      S2428   1.802       .  S
S2427      H2430   1.402       .  S
S2428      H2429   1.404       .  S
C2433      C2434   1.387       .  A
C2433      C2438   1.405       .  A
C2434      C2435   1.386       .  A
C2434      H2443   1.078       .  S
C2435      C2436   1.416       .  A
C2435      S2439   1.805       .  S
C2436      C2437   1.403       .  A
C2437      C2438   1.391       .  A
C2437      H2444   1.079       .  S
C2438      S2440   1.804       .  S
S2439      H2442   1.397       .  S
S2440      H2441   1.406       .  S
C2445      C2446   1.405       .  A
C2445      C2450   1.421       .  A
C2446      C2447   1.384       .  A
C2446      H2455   1.081       .  S
C2447      C2448   1.400       .  A
C2448      C2449   1.394       .  A
C2449      C2450   1.391       .  A
C2449      H2456   1.084       .  S
C2450      S2452   1.807       .  S
S2451      H2454   1.407       .  S
S2452      H2453   1.400       .  S
C2457      C2458   1.389       .  A
C2457      C2462   1.412       .  A
C2458      C2459   1.379       .  A
C2458      H2467   1.079       .  S
C2459      C2460   1.417       .  A
C2459      S2463   1.809       .  S
C2460      C2461   1.399       .  A
C2461      C2462   1.384       .  A
C2461      H2468   1.079       .  S
C2462      S2464   1.804       .  S
S2463      H2466   1.394       .  S
S2464      H2465   1.399       .  S
C2469      C2470   1.407       .  A
C2469      C2474   1.423       .  A
C2470      C2471   1.385       .  A
C2470      H2479   1.079       .  S
C2471      C2472   1.401       .  A
C2471      S2475   1.802       .  S
C2472      C2473   1.391       .  A
C2473      C2474   1.383       .  A
C2473      H2480   1.083       .  S
C2474      S2476   1.805       .  S
S2475      H2478   1.403       .  S
S2476      H2477   1.397       .  S
C2481      C2482   1.390       .  A
C2481      C2486   1.405       .  A
C2482      C2483   1.393       .  A
C2482      H2491   1.085       .  S
C2483      C2484   1.427       .  A
C2483      S2487   1.805       .  S
C2484      C2485   1.400       .  A
C2485      C2486   1.386       .  A
C2485      H2492   1.078       .  S
C2486      S2488   1.804       .  S
S2487      H2490   1.396       .  S
S2488      H2489   1.407       .  S
C2493      C2494   1.402       .  A
C2493      C2498   1.420       .  A
C2494      C2495   1.384       .  A
C2494      H2503   1.078       .  S
C2495      C2496   1.404       .  A
C2495      S2499   1.806       .  S
C2496      C2497   1.395       .  A
C2497      C2498   1.387       .  A
C2497      H2504   1.085       .  S
C2498      S2500   1.811       .  S
S2499      H2502   1.405       .  S
S2500      H2501   1.394       .  S
C2505      C2506   1.399       .  A
C2505      C2510   1.405       .  A
C2506      C2507   1.384       .  A
C2506      H2515   1.083       .  S
C2507      C2508   1.411       .  A
C2507      S2511   1.808       .  S
C2508      C2509   1.405       .  A
C2509      C2510   1.385       .  A
C2509      H2516   1.084       .  S
C2510      S2512   1.799       .  S
S2511      H2514   1.403       .  S
S2512      H2513   1.400       .  S
C2517      C2518   1.400       .  A
C2517      C2522   1.403       .  A
C2518      C2519   1.396       .  A
C2518      H2527   1.085       .  S
C2519      C2520   1.424       .  A
C2519      S2523   1.812       .  S
C2520      C2521   1.396       .  A
C2521      C2522   1.382       .  A
C2521      H2528   1.074       .  S
C2522      S2524   1.799       .  S
S2523      H2526   1.393       .  S
S2524      H2525   1.407   1_565  S
C2529      C2530   1.393       .  A
C2529      C2534   1.410       .  A
C2530      C2531   1.390       .  A
C2530      H2539   1.084       .  S
C2531      C2532   1.433       .  A
C2531      S2535   1.812       .  S
C2532      C2533   1.405       .  A
C2533      C2534   1.394       .  A
C2533      H2540   1.084       .  S
C2534      S2536   1.806       .  S
S2535      H2538   1.399       .  S
S2536      H2537   1.407       .  S
C2541      C2542   1.399       .  A
C2541      C2546   1.430       .  A
C2542      C2543   1.382       .  A
C2542      H2551   1.074       .  S
C2543      C2544   1.402       .  A
C2543      S2547   1.806       .  S
C2544      C2545   1.391       .  A
C2545      C2546   1.395       .  A
C2545      H2552   1.084       .  S
C2546      S2548   1.807       .  S
S2547      H2550   1.407       .  S
S2548      H2549   1.395       .  S
