geometry optimzed in LAMMPS
_audit_creation_date              2020-12-01 
_audit_creation_method            'lammps2cif' 
_symmetry_space_group_name_H-M    'P1' 
_symmetry_Int_Tables_number       1 
_symmetry_cell_setting            triclinic 
loop_ 
_symmetry_equiv_pos_as_xyz 
  x,y,z 
_cell_length_a                    42.75819286 
_cell_length_b                    42.89603083387566 
_cell_length_c                    43.15679516125674 
_cell_angle_alpha                 90.01499705878288 
_cell_angle_beta                  89.96274058367783 
_cell_angle_gamma                 90.41297897210684 
loop_ 
_atom_site_label 
_atom_site_type_symbol 
_atom_site_fract_x 
_atom_site_fract_y 
_atom_site_fract_z 
_atom_site_charge 
C1          C  0.09900221  0.69724360  0.94308798     0.03400
C2          C  0.07899410  0.67913700  0.96201464    -0.12700
C3          C  0.04937852  0.66941909  0.95102409     0.00900
C4          C  0.04024762  0.67814285  0.92080918    -0.11300
C5          C  0.06054251  0.69597155  0.90184898     0.03400
C6          C  0.08980971  0.70484392  0.91312586    -0.10700
H7          H  0.08665641  0.67222650  0.98492020     0.09000
H8          H  0.01750105  0.67108817  0.91215638     0.06500
H9          H  0.10552370  0.71828115  0.89847685     0.06400
C10         C  0.84640905  0.69537293  0.94886469     0.03400
C11         C  0.85759332  0.70862863  0.92145692    -0.12700
C12         C  0.88785654  0.70258809  0.91109074     0.00900
C13         C  0.90742614  0.68282838  0.92847737    -0.11300
C14         C  0.89651760  0.66903848  0.95617852     0.03400
C15         C  0.86573768  0.67534342  0.96614082    -0.10700
H16         H  0.84266940  0.72400635  0.90818976     0.09000
H17         H  0.93075377  0.67774011  0.92015376     0.06500
H18         H  0.85692728  0.66488535  0.98730130     0.06400
C19         C  0.88900761  0.70110667  0.14633269     0.03400
C20         C  0.90907709  0.68137308  0.12936584    -0.12700
C21         C  0.89997512  0.66993339  0.09995149     0.00900
C22         C  0.87026060  0.67802324  0.08830084    -0.11300
C23         C  0.85036283  0.69759729  0.10547495     0.03400
C24         C  0.85997958  0.70899525  0.13416462    -0.10700
H25         H  0.93142035  0.67477493  0.13910150     0.09000
H26         H  0.86241524  0.66869013  0.06627578     0.06500
H27         H  0.84456593  0.72404094  0.14730059     0.06400
C28         C  0.05467248  0.70245128  0.14684198     0.03400
C29         C  0.08499659  0.71043114  0.13804217    -0.12700
C30         C  0.09706533  0.70046122  0.10978272     0.00900
C31         C  0.07892555  0.68102232  0.09039552    -0.11300
C32         C  0.04825303  0.67235952  0.09908872     0.03400
C33         C  0.03614040  0.68345127  0.12738875    -0.10700
H34         H  0.09903094  0.72536333  0.15292026     0.09000
H35         H  0.08864190  0.67265359  0.06876309     0.06500
H36         H  0.01270787  0.67686937  0.13454240     0.06400
C37         C  0.89076083  0.43362875  0.15060361     0.03400
C38         C  0.86151734  0.42503686  0.13921019    -0.12700
C39         C  0.85199797  0.43431548  0.10982246     0.00900
C40         C  0.87213950  0.45258879  0.09125459    -0.11300
C41         C  0.90174379  0.46193488  0.10241278     0.03400
C42         C  0.91084317  0.45249974  0.13243906    -0.10700
H43         H  0.84596524  0.41091991  0.15339888     0.09000
H44         H  0.86456508  0.45997154  0.06846664     0.06500
H45         H  0.93320574  0.45999586  0.14171743     0.06400
C46         C  0.85130375  0.43493962  0.94147446     0.03400
C47         C  0.86876891  0.45424570  0.96165236    -0.12700
C48         C  0.90083082  0.45995397  0.95612370     0.00900
C49         C  0.91532254  0.44550196  0.93059110    -0.11300
C50         C  0.89769213  0.42653024  0.91037547     0.03400
C51         C  0.86593803  0.42184667  0.91572467    -0.10700
H52         H  0.85779516  0.46418938  0.98195743     0.09000
H53         H  0.93993507  0.44959875  0.92600947     0.06500
H54         H  0.85271611  0.40674212  0.90029666     0.06400
C55         C  0.08006851  0.41700934  0.94562331     0.03400
C56         C  0.06413463  0.43910084  0.96355497    -0.12700
C57         C  0.04514626  0.46140035  0.94904720     0.00900
C58         C  0.04485307  0.46268741  0.91606426    -0.11300
C59         C  0.06040055  0.43970765  0.89792958     0.03400
C60         C  0.07503104  0.41548684  0.91393544    -0.10700
H61         H  0.06792397  0.44007662  0.98836452     0.09000
H62         H  0.03234862  0.48143286  0.90499259     0.06500
H63         H  0.08463820  0.39573466  0.90184087     0.06400
C64         C  0.05987772  0.44013603  0.15213787     0.03400
C65         C  0.09030445  0.43253215  0.14379935    -0.12700
C66         C  0.10203649  0.43986846  0.11447461     0.00900
C67         C  0.08303386  0.45658997  0.09348988    -0.11300
C68         C  0.05241339  0.46550917  0.10194283     0.03400
C69         C  0.04092818  0.45689394  0.13140218    -0.10700
H70         H  0.10452371  0.41930709  0.15986167     0.09000
H71         H  0.09169990  0.46222560  0.07057990     0.06500
H72         H  0.01750096  0.46344663  0.13829046     0.06400
O73         O  0.03588150  0.61747278  0.96205604    -0.75000
O74         O  0.01082346  0.65548540  0.98966688    -0.53900
C75         C  0.03056982  0.64617581  0.96880917     0.78700
O76         O  0.90974201  0.51225824  0.96973907    -0.59600
O77         O  0.94034945  0.47525133  0.99272277    -0.52600
C78         C  0.91802248  0.48383623  0.97441305     0.70700
O79         O  0.90885214  0.61679073  0.96785575    -0.74200
O80         O  0.93780004  0.65525907  0.99122673    -0.54700
C81         C  0.91578934  0.64565991  0.97287833     0.76700
O82         O  0.03332775  0.51399160  0.96036774    -0.59300
O83         O  0.01112603  0.47643057  0.99107241    -0.52400
C84         C  0.02868427  0.48536224  0.96811968     0.73300
Zr85       Zr  0.01889791  0.56584210  0.97898898     2.54700
O86         O  0.01199694  0.56749036  0.92292286    -0.79900
O87         O  0.07585283  0.56494362  0.97829369    -0.93300
Zr88       Zr  0.92705622  0.56496303  0.98330087     2.64700
O89         O  0.92770346  0.56475461  0.92683420    -0.98200
O90         O  0.87024998  0.56446217  0.98694897    -0.80300
O91         O  0.97282663  0.59651733  0.98031176    -0.83700
O92         O  0.97317143  0.53446720  0.98140375    -2.18400
O93         O  0.04130857  0.51672601  0.08697300    -0.67100
O94         O  0.01299991  0.47774115  0.06373185    -0.51600
C95         C  0.03445691  0.48783532  0.08257979     0.71700
O96         O  0.91399145  0.61769897  0.09080643    -0.60000
O97         O  0.93867240  0.65543548  0.06205422    -0.51900
C98         C  0.91914327  0.64634401  0.08330018     0.78900
O99         O  0.91496145  0.51406526  0.09162213    -0.71400
O100        O  0.94005908  0.47622797  0.06382962    -0.50000
C101        C  0.92043868  0.48539286  0.08482811     0.74900
O102        O  0.03803819  0.61994227  0.08686143    -0.66700
O103        O  0.00995311  0.65709213  0.06118758    -0.53900
C104        C  0.03083743  0.64843205  0.08105535     0.73300
Zr105      Zr  0.02287426  0.56758731  0.07023859     2.77500
O106        O  0.02368356  0.56796794  0.12670151    -0.97400
O107        O  0.07939044  0.57007264  0.06371904    -0.78300
Zr108      Zr  0.93077478  0.56597986  0.07409207     2.70100
O109        O  0.93277086  0.56642922  0.13046653    -0.79500
O110        O  0.87396904  0.56531681  0.06954259    -0.98600
Zr111      Zr  0.97463149  0.62834393  0.02596760     2.21500
Zr112      Zr  0.97601296  0.50375428  0.02780368     2.11100
O113        O  0.97721599  0.53593840  0.07322414    -2.47300
O114        O  0.97656409  0.59766353  0.07227305    -0.79300
O115        O  0.02202352  0.53573821  0.02514719    -0.71500
O116        O  0.92840608  0.59645151  0.02836798    -2.32400
O117        O  0.02116680  0.59753520  0.02419497    -2.28700
O118        O  0.92920422  0.53427782  0.02909514    -0.73300
H119        H  0.97234913  0.52117678  0.96334495     0.78700
H120        H  0.90988259  0.60919009  0.02896789     0.79800
H121        H  0.97799832  0.52321175  0.09165363     0.82100
H122        H  0.03953048  0.61073169  0.02343818     0.79700
H123        H  0.86304510  0.56248007  0.96522304     0.42700
H124        H  0.86858439  0.54400912  0.06235709     0.41700
H125        H  0.94762585  0.58346853  0.13561876     0.41300
H126        H  0.01085455  0.54972704  0.13299991     0.39300
H127        H  0.08443358  0.55185953  0.05057758     0.42400
H128        H  0.08137338  0.56325430  0.95607007     0.37200
H129        H  0.02386598  0.54962133  0.91455380     0.43300
H130        H  0.94787642  0.55513482  0.92118791     0.39700
H131        H  0.04536454  0.56227724  0.13227614     0.44700
H132        H  0.08149860  0.54447193  0.98721608     0.43400
H133        H  0.91171656  0.54911094  0.92070321     0.43500
H134        H  0.86630426  0.56612877  0.09116883     0.43900
C135        C  0.60969092  0.98486534  0.14972908     0.03400
C136        C  0.61808751  0.95493374  0.14085712    -0.12700
C137        C  0.60792740  0.94241093  0.11280583     0.00900
C138        C  0.58896474  0.96052166  0.09297047    -0.11300
C139        C  0.58054932  0.99123518  0.10138507     0.03400
C140        C  0.59108302  0.00318723  0.12999981    -0.10700
H141        H  0.63247725  0.94104032  0.15619642     0.09000
H142        H  0.58080212  0.95082669  0.07123019     0.06500
H143        H  0.58411574  0.02629498  0.13730759     0.06400
C144        C  0.61042947  0.98380843  0.90880804     0.03400
C145        C  0.59074589  0.00207008  0.92758055    -0.12700
C146        C  0.58087032  0.99104533  0.95682045     0.00900
C147        C  0.59086714  0.96141147  0.96681997    -0.11300
C148        C  0.61090203  0.94343968  0.94804854     0.03400
C149        C  0.62009208  0.95467454  0.91912403    -0.10700
H150        H  0.58268391  0.02443247  0.91921299     0.09000
H151        H  0.58298827  0.95231313  0.98893379     0.06500
H152        H  0.63492010  0.94055286  0.90441133     0.06400
C153        C  0.60535227  0.18911357  0.94348099     0.03400
C154        C  0.58776156  0.16952784  0.96322216    -0.12700
C155        C  0.57762678  0.13993036  0.95293998     0.00900
C156        C  0.58527221  0.13035996  0.92259220    -0.11300
C157        C  0.60312788  0.14994111  0.90308187     0.03400
C158        C  0.61254631  0.17929926  0.91354435    -0.10700
H159        H  0.58146104  0.17755855  0.98618948     0.09000
H160        H  0.57729394  0.10787136  0.91416048     0.06500
H161        H  0.62621132  0.19437394  0.89846890     0.06400
C162        C  0.60436737  0.19354096  0.10894470     0.03400
C163        C  0.58637737  0.17364966  0.08986706    -0.12700
C164        C  0.57786652  0.14357685  0.10030607     0.00900
C165        C  0.58744595  0.13405603  0.13011975    -0.11300
C166        C  0.60524255  0.15432135  0.14902292     0.03400
C167        C  0.61358466  0.18369934  0.13815123    -0.10700
H168        H  0.57874524  0.18166993  0.06731535     0.09000
H169        H  0.58069863  0.11125358  0.13872592     0.06500
H170        H  0.62744022  0.19918036  0.15266069     0.06400
C171        C  0.34008787  0.18016301  0.94121636     0.03400
C172        C  0.33431746  0.17048286  0.91108678    -0.12700
C173        C  0.34498076  0.14181535  0.90059946     0.00900
C174        C  0.36354139  0.12313209  0.92017423    -0.11300
C175        C  0.37011130  0.13286797  0.95083286     0.03400
C176        C  0.35778796  0.16139364  0.96133276    -0.10700
H177        H  0.32029283  0.18495039  0.89592942     0.09000
H178        H  0.37279837  0.10130666  0.91163354     0.06500
H179        H  0.36266579  0.16938455  0.98467101     0.06400
C180        C  0.34437178  0.98244213  0.90309581     0.03400
C181        C  0.36285532  0.00114688  0.92298141    -0.12700
C182        C  0.37161673  0.99003035  0.95256329     0.00900
C183        C  0.36143493  0.96002260  0.96177345    -0.11300
C184        C  0.34267778  0.94163427  0.94186143     0.03400
C185        C  0.33483194  0.95290033  0.91267649    -0.10700
H186        H  0.37077517  0.02391639  0.91529221     0.09000
H187        H  0.36843919  0.95083099  0.98408173     0.06500
H188        H  0.32119617  0.93838429  0.89705532     0.06400
C189        C  0.34536469  0.98189659  0.15474921     0.03400
C190        C  0.36429916  0.00109970  0.13576694    -0.12700
C191        C  0.37184491  0.99179490  0.10530608     0.00900
C192        C  0.36017244  0.96312399  0.09417965    -0.11300
C193        C  0.34118260  0.94411984  0.11315238     0.03400
C194        C  0.33418760  0.95355346  0.14322817    -0.10700
H195        H  0.37308129  0.02312406  0.14459494     0.09000
H196        H  0.36639647  0.95527925  0.07112384     0.06500
H197        H  0.31996177  0.93860121  0.15790808     0.06400
C198        C  0.34096149  0.18718198  0.10734206     0.03400
C199        C  0.35994832  0.16792700  0.08875950    -0.12700
C200        C  0.36985878  0.13866637  0.09986374     0.00900
C201        C  0.36070806  0.12917972  0.12982635    -0.11300
C202        C  0.34178229  0.14856539  0.14819327     0.03400
C203        C  0.33259810  0.17749837  0.13704308    -0.10700
H204        H  0.36732809  0.17587095  0.06604925     0.09000
H205        H  0.36848838  0.10700280  0.13891653     0.06500
H206        H  0.31824529  0.19241004  0.15145636     0.06400
O207        O  0.52814132  0.00142550  0.08879093    -0.75000
O208        O  0.56578344  0.03056980  0.06428755    -0.53900
C209        C  0.55683469  0.00882268  0.08328377     0.78700
O210        O  0.42387623  0.00151015  0.96585471    -0.59600
O211        O  0.38543537  0.02732726  0.99216944    -0.52600
C212        C  0.39496537  0.00752542  0.97158048     0.70700
O213        O  0.52828927  0.00092472  0.96906816    -0.74200
O214        O  0.56581408  0.03013006  0.99370199    -0.54700
C215        C  0.55694013  0.00848710  0.97462383     0.76700
O216        O  0.42408056  0.00455155  0.09372016    -0.59300
O217        O  0.38577126  0.02796777  0.06504668    -0.52400
C218        C  0.39524420  0.00952808  0.08683006     0.73300
Zr219      Zr  0.47592774  0.01940331  0.07484492     2.54700
O220        O  0.47431008  0.96270573  0.07305342    -0.79900
O221        O  0.47959000  0.02257683  0.13114923    -0.93300
Zr222      Zr  0.47583999  0.01773591  0.98370771     2.64700
O223        O  0.47662836  0.96099300  0.98538954    -0.98200
O224        O  0.47698873  0.02084582  0.92736580    -0.80300
O225        O  0.50687993  0.01914532  0.02926558    -0.83700
O226        O  0.44470643  0.01735580  0.02930745    -2.18400
O227        O  0.42219535  0.12679646  0.08926259    -0.67100
O228        O  0.38456278  0.09985729  0.06242573    -0.51600
C229        C  0.39354103  0.12047433  0.08255924     0.71700
O230        O  0.52585588  0.12694949  0.96520894    -0.60000
O231        O  0.56443938  0.10208920  0.99220215    -0.51900
C232        C  0.55471595  0.12167792  0.97150437     0.73500
O233        O  0.42239091  0.12275162  0.96361772    -0.71400
O234        O  0.38455596  0.09700400  0.99129920    -0.50000
C235        C  0.39366315  0.11620853  0.96987451     0.74900
O236        O  0.52595943  0.13007490  0.08864339    -0.66700
O237        O  0.56458651  0.10365400  0.06319001    -0.53900
C238        C  0.55485949  0.12446692  0.08267326     0.73300
Zr239      Zr  0.47442850  0.11074890  0.07352328     2.77500
O240        O  0.47372171  0.16752120  0.07526514    -0.97400
O241        O  0.47461426  0.10402183  0.12954843    -0.78300
Zr242      Zr  0.47447174  0.10924371  0.98212515     2.70100
O243        O  0.47273706  0.16592434  0.98410219    -0.79500
O244        O  0.47619856  0.10489692  0.92587748    -0.98600
Zr245      Zr  0.53770863  0.06598836  0.02859334     2.21500
Zr246      Zr  0.41271572  0.06318546  0.02827514     2.11100
O247        O  0.44355856  0.11010363  0.02772379    -2.47300
O248        O  0.50537596  0.11133741  0.02779436    -0.79300
O249        O  0.44389964  0.06441926  0.07441678    -0.71500
O250        O  0.50631070  0.06421012  0.98260714    -2.32400
O251        O  0.50645179  0.06586533  0.07470116    -2.28700
O252        O  0.44412995  0.06283406  0.98245295    -0.73300
H253        H  0.43167030  0.99859523  0.02966963     0.78700
H254        H  0.51942656  0.06419928  0.96448037     0.79800
H255        H  0.43027178  0.12824821  0.02725636     0.82100
H256        H  0.51974907  0.06647209  0.09296227     0.79700
H257        H  0.49682269  0.03177149  0.92232210     0.42700
H258        H  0.46083557  0.08826470  0.92085426     0.41700
H259        H  0.48925891  0.17183894  0.99911540     0.41300
H260        H  0.45616866  0.17358019  0.06164516     0.39300
H261        H  0.47838909  0.12522007  0.13788809     0.42400
H262        H  0.49962317  0.03353442  0.13536200     0.37200
H263        H  0.48871041  0.95715121  0.05596883     0.43300
H264        H  0.45606187  0.95478335  0.99400918     0.39700
H265        H  0.46651796  0.17264963  0.09648091     0.44700
H266        H  0.48327577  0.00085536  0.13790869     0.43400
H267        H  0.47572674  0.95453729  0.96335979     0.43500
H268        H  0.46651499  0.12429991  0.91817069     0.43900
C269        C  0.09622662  0.98149867  0.65709979     0.03400
C270        C  0.08557742  0.95155966  0.66377646    -0.12700
C271        C  0.05659672  0.94114351  0.65327540     0.00900
C272        C  0.03809365  0.96079870  0.63457924    -0.11300
C273        C  0.04864502  0.99119237  0.62693261     0.03400
C274        C  0.07797786  0.00134012  0.63836744    -0.10700
H275        H  0.09980843  0.93628607  0.67790812     0.09000
H276        H  0.01564541  0.95254965  0.62616523     0.06500
H277        H  0.08671909  0.02435790  0.63246808     0.06400
C278        C  0.85304694  0.98604432  0.65948349     0.03400
C279        C  0.86250527  0.95629189  0.66785172    -0.12700
C280        C  0.89095859  0.94443207  0.65780736     0.00900
C281        C  0.91064014  0.96289628  0.63879211    -0.11300
C282        C  0.90165942  0.99337016  0.63017580     0.03400
C283        C  0.87252162  0.00472358  0.64057216    -0.10700
H284        H  0.84747953  0.94214482  0.68256956     0.09000
H285        H  0.93268820  0.95361881  0.63071171     0.06500
H286        H  0.86487231  0.02773095  0.63368669     0.06400
C287        C  0.89613222  0.18545558  0.66534648     0.03400
C288        C  0.86504994  0.17805084  0.67168894    -0.12700
C289        C  0.85084809  0.15158348  0.65893052     0.00900
C290        C  0.86837242  0.13260928  0.63844067    -0.11300
C291        C  0.90002926  0.13995897  0.63158223     0.03400
C292        C  0.91377359  0.16636844  0.64553826    -0.10700
H293        H  0.85179127  0.19303832  0.68702798     0.09000
H294        H  0.85780645  0.11193377  0.62843075     0.06500
H295        H  0.93771927  0.17276405  0.64006922     0.06400
C296        C  0.06361170  0.19363273  0.65409163     0.03400
C297        C  0.04346579  0.17481737  0.63587125    -0.12700
C298        C  0.05212403  0.14415251  0.62744585     0.00900
C299        C  0.08149864  0.13291444  0.63741167    -0.11300
C300        C  0.10175665  0.15211410  0.65509609     0.03400
C301        C  0.09275683  0.18225948  0.66268191    -0.10700
H302        H  0.02124910  0.18403071  0.62820995     0.09000
H303        H  0.08879095  0.10965141  0.63099728     0.06500
H304        H  0.10865975  0.19703667  0.67576849     0.06400
C305        C  0.89118318  0.19411133  0.39642313     0.03400
C306        C  0.91010679  0.17451846  0.41467867    -0.12700
C307        C  0.89900195  0.14488327  0.42407590     0.00900
C308        C  0.86858985  0.13547469  0.41513115    -0.11300
C309        C  0.84964987  0.15541631  0.39723400     0.03400
C310        C  0.86116919  0.18446432  0.38822154    -0.10700
H311        H  0.93311189  0.18245259  0.42183257     0.09000
H312        H  0.85958763  0.11295606  0.42237782     0.06500
H313        H  0.84652808  0.19983340  0.37461685     0.06400
C314        C  0.84501131  0.98489949  0.39886782     0.03400
C315        C  0.86494973  0.00403562  0.41687903    -0.12700
C316        C  0.89526064  0.99397878  0.42492064     0.00900
C317        C  0.90503991  0.96419045  0.41489495    -0.11300
C318        C  0.88511542  0.94520761  0.39664780     0.03400
C319        C  0.85531054  0.95573282  0.38904551    -0.10700
H320        H  0.85690283  0.02664058  0.42460005     0.09000
H321        H  0.92793926  0.95574342  0.42138217     0.06500
H322        H  0.84008787  0.94121732  0.37492513     0.06400
C323        C  0.09771532  0.98473802  0.39562791     0.03400
C324        C  0.08626888  0.95582694  0.38609783    -0.12700
C325        C  0.05605916  0.94628817  0.39372136     0.00900
C326        C  0.03658933  0.96614059  0.41115406    -0.11300
C327        C  0.04760199  0.99565959  0.42095541     0.03400
C328        C  0.07845063  0.00471008  0.41315663    -0.10700
H329        H  0.10103152  0.94058945  0.37245374     0.09000
H330        H  0.01331483  0.95836338  0.41761472     0.06500
H331        H  0.08752296  0.02703053  0.42092410     0.06400
C332        C  0.05469711  0.19097945  0.38920121     0.03400
C333        C  0.03654851  0.17318053  0.41024463    -0.12700
C334        C  0.04660283  0.14334409  0.41985778     0.00900
C335        C  0.07543526  0.13213491  0.40859657    -0.11300
C336        C  0.09347162  0.15016477  0.38776224     0.03400
C337        C  0.08291136  0.17925108  0.37830625    -0.10700
H338        H  0.01495462  0.18262808  0.41929005     0.09000
H339        H  0.08407332  0.10979064  0.41640878     0.06500
H340        H  0.09717475  0.19322235  0.36272435     0.06400
O341        O  0.91380246  0.00452716  0.57825176    -0.75000
O342        O  0.94006751  0.03229420  0.61551494    -0.53900
C343        C  0.91999320  0.01123754  0.60666480     0.78700
O344        O  0.03685261  0.00859425  0.47254265    -0.59600
O345        O  0.00822177  0.03330427  0.43522006    -0.52600
C346        C  0.02959388  0.01393765  0.44414803     0.70700
O347        O  0.03677982  0.00486057  0.57535215    -0.74200
O348        O  0.01166385  0.03150061  0.61391877    -0.54700
C349        C  0.03109517  0.01056198  0.60411110     0.76700
O350        O  0.90902785  0.00624565  0.47622524    -0.59300
O351        O  0.93497978  0.03250141  0.43770027    -0.52400
C352        C  0.91447135  0.01225931  0.44752073     0.73300
Zr353      Zr  0.92860462  0.02264550  0.52671344     2.54700
O354        O  0.93090932  0.96602236  0.52453821    -0.79900
O355        O  0.87199331  0.02694804  0.53095823    -0.93300
Zr356      Zr  0.02058083  0.02392058  0.52443894     2.64700
O357        O  0.01921998  0.96709493  0.52344230    -0.98200
O358        O  0.07737561  0.02875512  0.52324696    -0.80300
O359        O  0.97537067  0.02277975  0.55634543    -0.83700
O360        O  0.97381219  0.02277985  0.49477868    -2.18400
O361        O  0.91134773  0.13196223  0.47561750    -0.67100
O362        O  0.93662548  0.10537069  0.43709744    -0.51600
C363        C  0.91694984  0.12605016  0.44687960     0.71700
O364        O  0.03738736  0.13302576  0.57593633    -0.60000
O365        O  0.01346268  0.10467078  0.61427705    -0.51900
C366        C  0.03289907  0.12599731  0.60462968     0.73500
O367        O  0.03623521  0.13168025  0.47250829    -0.71400
O368        O  0.00809106  0.10526129  0.43558812    -0.50000
C369        C  0.02903474  0.12555146  0.44410485     0.74900
O370        O  0.91002053  0.12816335  0.57904786    -0.66700
O371        O  0.93996413  0.10398047  0.61581457    -0.53900
C372        C  0.91773470  0.12258527  0.60739052     0.73300
Zr373      Zr  0.92778223  0.11400270  0.52691418     2.77500
O374        O  0.92872746  0.17074280  0.52952872    -0.97400
O375        O  0.87113328  0.10840504  0.52474266    -0.78300
Zr376      Zr  0.01976613  0.11567702  0.52470910     2.70100
O377        O  0.01428324  0.17215514  0.52221415    -0.79500
O378        O  0.07666851  0.11484881  0.52674700    -0.98600
Zr379      Zr  0.97598292  0.06872025  0.58789322     2.21500
Zr380      Zr  0.97259103  0.06890017  0.46346007     2.11100
O381        O  0.97307376  0.11502406  0.49505614    -2.47300
O382        O  0.97456552  0.11513450  0.55680477    -0.79300
O383        O  0.92699764  0.06834336  0.49575954    -0.71500
O384        O  0.02147939  0.06965889  0.55535537    -2.32400
O385        O  0.92885577  0.06821566  0.55770953    -2.28700
O386        O  0.01969006  0.06984042  0.49368489    -0.73300
H387        H  0.97352415  0.00429409  0.48170863     0.78700
H388        H  0.04018884  0.06982648  0.56782089     0.79800
H389        H  0.97278355  0.13337440  0.48222867     0.82100
H390        H  0.91089833  0.06772291  0.57089008     0.79700
H391        H  0.08318328  0.03748657  0.54369620     0.42700
H392        H  0.08287754  0.10024931  0.51012328     0.41700
H393        H  0.01599765  0.17954907  0.54387815     0.41300
H394        H  0.94417421  0.17724935  0.51365686     0.39300
H395        H  0.86336262  0.12991745  0.52204420     0.42400
H396        H  0.86382915  0.00639123  0.52420768     0.37200
H397        H  0.94654869  0.96033267  0.54042508     0.43300
H398        H  0.99996121  0.96166099  0.51186889     0.39700
H399        H  0.90828326  0.17724163  0.52100310     0.44700
H400        H  0.86600123  0.04144080  0.51416348     0.43400
H401        H  0.03650928  0.96087841  0.50951999     0.43500
H402        H  0.08332055  0.13565145  0.51917989     0.43900
C403        C  0.94443717  0.39748148  0.26299554    -0.10600
C404        C  0.97259938  0.41048680  0.25312825    -0.04400
C405        C  0.00118047  0.39807292  0.26182845    -0.10600
C406        C  0.00216295  0.37498825  0.28517232     0.10400
C407        C  0.97361825  0.36425242  0.29854708    -0.02300
C408        C  0.94451099  0.37461245  0.28654567     0.10200
C409        C  0.91657373  0.36169350  0.29812499    -0.12400
C410        C  0.91709294  0.33956046  0.32191598    -0.12400
C411        C  0.94557354  0.32960586  0.33463308     0.10200
C412        C  0.97413962  0.34163460  0.32247470    -0.02300
C413        C  0.03054459  0.36214317  0.29518502    -0.12500
C414        C  0.03102129  0.33951965  0.31853109    -0.12500
C415        C  0.00316380  0.32935551  0.33268969     0.10400
C416        C  0.00326534  0.30687589  0.35662888    -0.10600
C417        C  0.97530183  0.29885523  0.37112398    -0.04400
C418        C  0.94655463  0.30751574  0.35893749    -0.10600
H419        H  0.89416748  0.36911543  0.28918113     0.07700
H420        H  0.89506538  0.33054372  0.33064692     0.07700
H421        H  0.05253344  0.36984470  0.28522298     0.07800
H422        H  0.05336225  0.33040310  0.32592783     0.07800
H423        H  0.97222784  0.42725545  0.23422425     0.04300
H424        H  0.97570405  0.28061375  0.38861127     0.04300
C425        C  0.30508455  0.03951790  0.26442756    -0.10600
C426        C  0.31682617  0.06781498  0.25358662    -0.04400
C427        C  0.30304900  0.09604290  0.26120941    -0.10600
C428        C  0.27938801  0.09680697  0.28402061     0.10400
C429        C  0.26944288  0.06842184  0.29808559    -0.02300
C430        C  0.28177404  0.03948892  0.28774144     0.10200
C431        C  0.26994178  0.01157657  0.30030223    -0.12400
C432        C  0.24624060  0.01195134  0.32264971    -0.12400
C433        C  0.23392674  0.04026398  0.33331600     0.10200
C434        C  0.24556308  0.06880519  0.32089069    -0.02300
C435        C  0.26516167  0.12489776  0.29273178    -0.12500
C436        C  0.24161004  0.12526516  0.31519698    -0.12500
C437        C  0.23167851  0.09755756  0.32959562     0.10400
C438        C  0.20789005  0.09750578  0.35230326    -0.10600
C439        C  0.19941435  0.06969648  0.36663405    -0.04400
C440        C  0.20978654  0.04109296  0.35572854    -0.10600
H441        H  0.27900919  0.98929984  0.29280906     0.07700
H442        H  0.23768635  0.98996419  0.33176258     0.07700
H443        H  0.27242996  0.14677338  0.28236511     0.07800
H444        H  0.23140010  0.14740527  0.32154017     0.07800
H445        H  0.33381753  0.06756198  0.23482395     0.04300
H446        H  0.18009170  0.06996821  0.38304382     0.04300
C447        C  0.20002035  0.38075879  0.05567005    -0.10600
C448        C  0.18171984  0.38468458  0.02945408    -0.04400
C449        C  0.18642802  0.36750793  0.00272803    -0.10600
C450        C  0.21248096  0.34784782  0.00030263     0.10400
C451        C  0.23247276  0.34449514  0.02638226    -0.02300
C452        C  0.22564979  0.36017802  0.05467093     0.10200
C453        C  0.24410594  0.35436911  0.08090724    -0.12400
C454        C  0.26887368  0.33332721  0.07946865    -0.12400
C455        C  0.27643149  0.31832620  0.05153039     0.10200
C456        C  0.25835809  0.32426763  0.02460971    -0.02300
C457        C  0.21877296  0.33123744  0.97299487    -0.12500
C458        C  0.24468235  0.31178697  0.97107871    -0.12500
C459        C  0.26466701  0.30807250  0.99658774     0.10400
C460        C  0.29021981  0.28756677  0.99545989    -0.10600
C461        C  0.30934456  0.28423960  0.02125384    -0.04400
C462        C  0.30116132  0.29678215  0.04985259    -0.10600
H463        H  0.23927992  0.36590079  0.10269993     0.07700
H464        H  0.28250510  0.32919235  0.10019360     0.07700
H465        H  0.20372771  0.33330521  0.95293750     0.07800
H466        H  0.24890922  0.29946597  0.94958916     0.07800
H467        H  0.16148948  0.39988558  0.03067653     0.04300
H468        H  0.32772037  0.26687176  0.02033832     0.04300
C469        C  0.64822001  0.04549388  0.25879545    -0.10600
C470        C  0.63660138  0.07362796  0.24823406    -0.04400
C471        C  0.64761220  0.10207999  0.25927751    -0.10600
C472        C  0.66857812  0.10276045  0.28458339     0.10400
C473        C  0.67928823  0.07406999  0.29710353    -0.02300
C474        C  0.66942983  0.04524497  0.28382572     0.10200
C475        C  0.68145670  0.01722242  0.29540148    -0.12400
C476        C  0.70315913  0.01735390  0.31953064    -0.12400
C477        C  0.71369458  0.04552167  0.33257092     0.10200
C478        C  0.70153753  0.07421978  0.32143588    -0.02300
C479        C  0.67992398  0.13099233  0.29686345    -0.12500
C480        C  0.70199851  0.13113494  0.32075579    -0.12500
C481        C  0.71331251  0.10306641  0.33305950     0.10400
C482        C  0.73667750  0.10272009  0.35626750    -0.10600
C483        C  0.74607700  0.07434606  0.36864460    -0.04400
C484        C  0.73668653  0.04601247  0.35605380    -0.10600
H485        H  0.67412900  0.99503437  0.28575599     0.07700
H486        H  0.71191695  0.99524890  0.32782407     0.07700
H487        H  0.67198707  0.15308728  0.28775258     0.07800
H488        H  0.71036521  0.15334146  0.32950750     0.07800
H489        H  0.62139212  0.07342648  0.22803079     0.04300
H490        H  0.76488889  0.07429727  0.38558494     0.04300
C491        C  0.99593949  0.74515924  0.25620261    -0.10600
C492        C  0.96761386  0.73076116  0.24910410    -0.04400
C493        C  0.93934990  0.74367637  0.25841929    -0.10600
C494        C  0.93932396  0.76698665  0.28162913     0.10400
C495        C  0.96841363  0.77814847  0.29334005    -0.02300
C496        C  0.99690271  0.76832153  0.27946274     0.10200
C497        C  0.02523012  0.78195073  0.28904825    -0.12400
C498        C  0.02580610  0.80402107  0.31289304    -0.12400
C499        C  0.99801517  0.81348109  0.32743303     0.10200
C500        C  0.96895049  0.80077994  0.31730979    -0.02300
C501        C  0.91138281  0.77940885  0.29332664    -0.12500
C502        C  0.91189605  0.80162727  0.31714142    -0.12500
C503        C  0.94037177  0.81222225  0.32973358     0.10400
C504        C  0.94137554  0.83432254  0.35415674    -0.10600
C505        C  0.97022096  0.84368476  0.36593797    -0.04400
C506        C  0.99816887  0.83589556  0.35145167    -0.10600
H507        H  0.04714441  0.77508051  0.27857175     0.07700
H508        H  0.04816844  0.81356081  0.32009474     0.07700
H509        H  0.88899140  0.77139647  0.28457164     0.07800
H510        H  0.88986760  0.81015854  0.32603809     0.07800
H511        H  0.96730878  0.71338470  0.23073101     0.04300
H512        H  0.97068596  0.86177882  0.38359249     0.04300
C513        C  0.30888947  0.09122941  0.78651993    -0.10600
C514        C  0.31991911  0.06253832  0.79648290    -0.04400
C515        C  0.30421245  0.03485619  0.78990031    -0.10600
C516        C  0.28031936  0.03482545  0.76716348     0.10400
C517        C  0.27058484  0.06373816  0.75427378    -0.02300
C518        C  0.28415831  0.09218236  0.76484766     0.10200
C519        C  0.27231763  0.12065484  0.75406289    -0.12400
C520        C  0.24766247  0.12132843  0.73284246    -0.12400
C521        C  0.23419402  0.09354402  0.72177284     0.10200
C522        C  0.24569160  0.06440148  0.73258548    -0.02300
C523        C  0.26525879  0.00715363  0.75783777    -0.12500
C524        C  0.24114964  0.00772505  0.73591855    -0.12500
C525        C  0.23118636  0.03602277  0.72295967     0.10400
C526        C  0.20685708  0.03713457  0.70080059    -0.10600
C527        C  0.19722289  0.06574922  0.68940122    -0.04400
C528        C  0.20913816  0.09377216  0.70044432    -0.10600
H529        H  0.28232000  0.14256160  0.76185294     0.07700
H530        H  0.23929580  0.14372219  0.72491656     0.07700
H531        H  0.27219959  0.98493927  0.76746284     0.07800
H532        H  0.23029180  0.98588292  0.72914211     0.07800
H533        H  0.33765707  0.06230343  0.81452428     0.04300
H534        H  0.17733736  0.06631245  0.67369754     0.04300
C535        C  0.96493482  0.36757985  0.81420667    -0.10600
C536        C  0.99324943  0.38151375  0.82148976    -0.04400
C537        C  0.01699088  0.38518396  0.79963143    -0.10600
C538        C  0.01584231  0.36696369  0.77220794     0.10400
C539        C  0.98773297  0.35028266  0.76531581    -0.02300
C540        C  0.96153799  0.35206632  0.78564239     0.10200
C541        C  0.93335300  0.33730268  0.77749747    -0.12400
C542        C  0.93124623  0.31957708  0.75049645    -0.12400
C543        C  0.95725372  0.31616173  0.73093598     0.10200
C544        C  0.98568618  0.33186520  0.73812896    -0.02300
C545        C  0.04167452  0.36380758  0.75227974    -0.12500
C546        C  0.04051579  0.34311571  0.72705669    -0.12500
C547        C  0.01268048  0.32717151  0.71950670     0.10400
C548        C  0.01086275  0.30643405  0.69391478    -0.10600
C549        C  0.98168645  0.29465555  0.68516424    -0.04400
C550        C  0.95577426  0.29705322  0.70445112    -0.10600
H551        H  0.91301439  0.33876571  0.79238036     0.07700
H552        H  0.90918652  0.30825932  0.74510488     0.07700
H553        H  0.06330982  0.37618302  0.75689281     0.07800
H554        H  0.06122256  0.34022965  0.71289690     0.07800
H555        H  0.99528913  0.39342734  0.84364402     0.04300
H556        H  0.98047011  0.27792200  0.66627081     0.04300
C557        C  0.21062869  0.73815644  0.05638079    -0.10600
C558        C  0.20215772  0.72366427  0.02879313    -0.04400
C559        C  0.21146311  0.73540702  0.00018133    -0.10600
C560        C  0.23425943  0.75943613  0.99895449     0.10400
C561        C  0.24600750  0.77211353  0.02712032    -0.02300
C562        C  0.23318453  0.76233433  0.05596976     0.10200
C563        C  0.24292294  0.77711725  0.08337630    -0.12400
C564        C  0.26567173  0.80062196  0.08265231    -0.12400
C565        C  0.27922823  0.81006423  0.05448941     0.10200
C566        C  0.26910719  0.79595654  0.02636678    -0.02300
C567        C  0.24533230  0.77126146  0.97060144    -0.12500
C568        C  0.26839284  0.79456220  0.96984535    -0.12500
C569        C  0.28082732  0.80688279  0.99743195     0.10400
C570        C  0.30436189  0.83025839  0.99718206    -0.10600
C571        C  0.31564362  0.84184910  0.02518174    -0.04400
C572        C  0.30247898  0.83353993  0.05344180    -0.10600
H573        H  0.23330969  0.77018049  0.10557436     0.07700
H574        H  0.27290400  0.81113878  0.10433311     0.07700
H575        H  0.23657629  0.76209601  0.94886321     0.07800
H576        H  0.27672268  0.80268810  0.94754064     0.07800
H577        H  0.18362856  0.70617902  0.02943032     0.04300
H578        H  0.33240064  0.86102814  0.02474102     0.04300
C579        C  0.73982805  0.39374518  0.99412438    -0.10600
C580        C  0.75138637  0.40531575  0.02199011    -0.04400
C581        C  0.74175909  0.39360909  0.05040977    -0.10600
C582        C  0.71684055  0.37192565  0.05163504     0.10400
C583        C  0.70321863  0.36119074  0.02345250    -0.02300
C584        C  0.71532402  0.37144670  0.99446059     0.10200
C585        C  0.70319973  0.35864795  0.96695482    -0.12400
C586        C  0.67968399  0.33584041  0.96782032    -0.12400
C587        C  0.66695514  0.32590873  0.99617711     0.10200
C588        C  0.67872540  0.33881879  0.02427341    -0.02300
C589        C  0.70559104  0.36041204  0.07999852    -0.12500
C590        C  0.68123098  0.33862097  0.08079904    -0.12500
C591        C  0.66758707  0.32763933  0.05325483     0.10400
C592        C  0.64365624  0.30489349  0.05370669    -0.10600
C593        C  0.63012334  0.29515415  0.02606906    -0.04400
C594        C  0.64282017  0.30321782  0.99750250    -0.10600
H595        H  0.71201411  0.36614696  0.94461749     0.07700
H596        H  0.67105925  0.32638842  0.94615096     0.07700
H597        H  0.71555254  0.36833246  0.10170968     0.07800
H598        H  0.67306112  0.33033018  0.10310612     0.07800
H599        H  0.77137208  0.42113934  0.02146606     0.04300
H600        H  0.61283755  0.27644315  0.02691339     0.04300
C601        C  0.94477152  0.74823716  0.80244083    -0.10600
C602        C  0.97335936  0.73644186  0.81183011    -0.04400
C603        C  0.00141729  0.74532854  0.79804140    -0.10600
C604        C  0.00102767  0.76584111  0.77235337     0.10400
C605        C  0.97179417  0.77720172  0.76142827    -0.02300
C606        C  0.94346395  0.76851479  0.77665728     0.10200
C607        C  0.91497783  0.78047004  0.76588713    -0.12400
C608        C  0.91419698  0.80095875  0.74068832    -0.12400
C609        C  0.94192229  0.81064458  0.72594786     0.10200
C610        C  0.97103534  0.79851133  0.73627939    -0.02300
C611        C  0.02880034  0.77602670  0.75802016    -0.12500
C612        C  0.02809189  0.79791063  0.73404197    -0.12500
C613        C  0.99954862  0.80939322  0.72294212     0.10400
C614        C  0.99853451  0.83190613  0.69907106    -0.10600
C615        C  0.96981700  0.84101462  0.68731863    -0.04400
C616        C  0.94171382  0.83270066  0.70149917    -0.10600
H617        H  0.89312568  0.77389186  0.77686680     0.07700
H618        H  0.89175103  0.80946973  0.73290130     0.07700
H619        H  0.05127577  0.76760855  0.76582494     0.07800
H620        H  0.05001082  0.80566982  0.72396744     0.07800
H621        H  0.97398646  0.72158444  0.83224224     0.04300
H622        H  0.96962904  0.85916951  0.66973439     0.04300
C623        C  0.64092045  0.09341467  0.79128730    -0.10600
C624        C  0.62919676  0.06450163  0.80055487    -0.04400
C625        C  0.64507596  0.03707255  0.79410632    -0.10600
C626        C  0.66991869  0.03757880  0.77246283     0.10400
C627        C  0.67956811  0.06652701  0.75933098    -0.02300
C628        C  0.66590550  0.09475061  0.76975944     0.10200
C629        C  0.67782688  0.12334241  0.75882000    -0.12400
C630        C  0.70225019  0.12427078  0.73717515    -0.12400
C631        C  0.71565339  0.09663893  0.72604043     0.10200
C632        C  0.70441123  0.06743167  0.73751038    -0.02300
C633        C  0.68544067  0.01016320  0.76387529    -0.12500
C634        C  0.70954088  0.01093127  0.74197384    -0.12500
C635        C  0.71915501  0.03922117  0.72844618     0.10400
C636        C  0.74378270  0.04050053  0.70664178    -0.10600
C637        C  0.75242944  0.06888127  0.69371968    -0.04400
C638        C  0.74034596  0.09697745  0.70403713    -0.10600
H639        H  0.66788550  0.14513564  0.76661265     0.07700
H640        H  0.71047549  0.14673078  0.72895764     0.07700
H641        H  0.67855591  0.98790074  0.77366950     0.07800
H642        H  0.72067412  0.98924746  0.73562758     0.07800
H643        H  0.61109790  0.06387059  0.81826330     0.04300
H644        H  0.77211720  0.06938133  0.67773317     0.04300
C645        C  0.72905617  0.72760136  0.00168432    -0.10600
C646        C  0.73386957  0.71141980  0.02924208    -0.04400
C647        C  0.73005329  0.72664295  0.05752911    -0.10600
C648        C  0.71074763  0.75321762  0.05893622     0.10400
C649        C  0.69955755  0.76635519  0.03095537    -0.02300
C650        C  0.71031964  0.75463312  0.00210913     0.10200
C651        C  0.70262281  0.77043613  0.97470087    -0.12400
C652        C  0.68294196  0.79632560  0.97542586    -0.12400
C653        C  0.67089824  0.80736572  0.00364718     0.10200
C654        C  0.68001057  0.79283665  0.03182593    -0.02300
C655        C  0.70285400  0.76715249  0.08733109    -0.12500
C656        C  0.68274085  0.79276258  0.08832497    -0.12500
C657        C  0.67082993  0.80569230  0.06085969     0.10400
C658        C  0.65066332  0.83173141  0.06112535    -0.10600
C659        C  0.63955837  0.84343573  0.03324472    -0.04400
C660        C  0.65023482  0.83282071  0.00481890    -0.10600
H661        H  0.71108667  0.76220949  0.95251512     0.07700
H662        H  0.67683925  0.80743083  0.95374614     0.07700
H663        H  0.71151817  0.75764402  0.10890844     0.07800
H664        H  0.67654917  0.80246176  0.11065453     0.07800
H665        H  0.74933959  0.69142448  0.02855155     0.04300
H666        H  0.62466931  0.86389597  0.03365919     0.04300
C667        C  0.04891095  0.24762805  0.39969347    -0.20000
C668        C  0.04564136  0.22262258  0.37898261    -0.06600
C669        C  0.03630451  0.22853921  0.34812024     0.14300
C670        C  0.02806365  0.25891770  0.33946141    -0.20100
C671        C  0.02800134  0.28332136  0.36113705    -0.06600
C672        C  0.04009499  0.27793151  0.39112569     0.14300
C673        C  0.04175211  0.30390597  0.41455898    -0.23400
H674        H  0.05747079  0.24322650  0.42290721     0.15600
H675        H  0.01815021  0.26288396  0.31668553     0.15600
C676        C  0.03311406  0.20254794  0.32480891    -0.23400
H677        H  0.05213950  0.29595056  0.43674722     0.05800
H678        H  0.01800403  0.31286959  0.41958053     0.09000
H679        H  0.05646342  0.32319343  0.40529095     0.09000
H680        H  0.01680230  0.18441694  0.33377242     0.09000
H681        H  0.05626421  0.19201984  0.32033699     0.09000
H682        H  0.02386277  0.21102975  0.30231607     0.05800
C683        C  0.15061421  0.14506604  0.39556881    -0.20000
C684        C  0.12446721  0.14017666  0.37654944    -0.06600
C685        C  0.12870451  0.12901693  0.34606151     0.14300
C686        C  0.15877627  0.12075696  0.33613516    -0.20100
C687        C  0.18443783  0.12232947  0.35638793    -0.06600
C688        C  0.18059451  0.13616401  0.38581854     0.14300
C689        C  0.20798945  0.13983672  0.40742393    -0.23400
H690        H  0.14739750  0.15507856  0.41840419     0.15600
H691        H  0.16162997  0.10953344  0.31379764     0.15600
C692        C  0.10129483  0.12408635  0.32465604    -0.23400
H693        H  0.20112185  0.15132089  0.42944677     0.05800
H694        H  0.22630442  0.15438226  0.39612973     0.09000
H695        H  0.21790382  0.11669979  0.41313305     0.09000
H696        H  0.08954425  0.14659100  0.32023583     0.09000
H697        H  0.08436596  0.10756006  0.33537840     0.09000
H698        H  0.10865882  0.11433859  0.30196844     0.05800
C699        C  0.13383442  0.99926092  0.35331345    -0.20000
C700        C  0.12934130  0.99407880  0.38506371    -0.06600
C701        C  0.15514148  0.99608803  0.40534254     0.14300
C702        C  0.18420423  0.00639979  0.39379440    -0.20100
C703        C  0.18775233  0.01516517  0.36255775    -0.06600
C704        C  0.16258452  0.01006802  0.34183038     0.14300
C705        C  0.16500407  0.01896225  0.30809478    -0.23400
H706        H  0.11417411  0.99644881  0.33767547     0.15600
H707        H  0.20328895  0.01078647  0.40976936     0.15600
C708        C  0.15184100  0.98799840  0.43913581    -0.23400
H709        H  0.14301997  0.01376308  0.29534323     0.05800
H710        H  0.18411852  0.00567029  0.29693934     0.09000
H711        H  0.16984292  0.04432550  0.30582169     0.09000
H712        H  0.14368755  0.96347803  0.44150603     0.09000
H713        H  0.13466143  0.00368023  0.45031240     0.09000
H714        H  0.17442618  0.99045113  0.45163375     0.05800
C715        C  0.03802216  0.91291636  0.35057574    -0.20000
C716        C  0.04537391  0.91563327  0.38208257    -0.06600
C717        C  0.04526098  0.88877006  0.40091757     0.14300
C718        C  0.03476270  0.86029254  0.38844980    -0.20100
C719        C  0.02389813  0.85834541  0.35774298    -0.06600
C720        C  0.02708888  0.88466262  0.33817829     0.14300
C721        C  0.01654592  0.88375639  0.30484932    -0.23400
H722        H  0.03964538  0.93339305  0.33592097     0.15600
H723        H  0.03192239  0.84027218  0.40354390     0.15600
C724        C  0.05540121  0.89038298  0.43428152    -0.23400
H725        H  0.02018198  0.90656041  0.29315657     0.05800
H726        H  0.99124555  0.87789740  0.30352402     0.09000
H727        H  0.03014734  0.86605620  0.29195442     0.09000
H728        H  0.04022329  0.90678080  0.44719471     0.09000
H729        H  0.08003320  0.89865090  0.43559909     0.09000
H730        H  0.05387677  0.86723443  0.44573454     0.05800
C731        C  0.81087082  0.00113959  0.35571745    -0.20000
C732        C  0.81423902  0.99576879  0.38758042    -0.06600
C733        C  0.78824515  0.99968597  0.40733170     0.14300
C734        C  0.76018761  0.01126458  0.39502292    -0.20100
C735        C  0.75794032  0.01993598  0.36365405    -0.06600
C736        C  0.78330139  0.01368134  0.34356264     0.14300
C737        C  0.78256447  0.02290405  0.30984458    -0.23400
H738        H  0.83065800  0.99715430  0.34053081     0.15600
H739        H  0.74101365  0.01669006  0.41051957     0.15600
C740        C  0.79028734  0.99238275  0.44138538    -0.23400
H741        H  0.80479097  0.01720832  0.29784966     0.05800
H742        H  0.77891774  0.04837471  0.30766073     0.09000
H743        H  0.76342650  0.01026136  0.29778032     0.09000
H744        H  0.80822249  0.00747675  0.45250932     0.09000
H745        H  0.79671855  0.96756302  0.44458766     0.09000
H746        H  0.76765863  0.99637551  0.45335374     0.05800
C747        C  0.89570505  0.88856379  0.40421267    -0.20000
C748        C  0.89501510  0.91446562  0.38439126    -0.06600
C749        C  0.90209500  0.91041432  0.35264400     0.14300
C750        C  0.91175383  0.88111635  0.34191769    -0.20100
C751        C  0.91572043  0.85600121  0.36232716    -0.06600
C752        C  0.90620642  0.85940552  0.39358528     0.14300
C753        C  0.90887426  0.83266535  0.41601544    -0.23400
H754        H  0.88907322  0.89145949  0.42828091     0.15600
H755        H  0.91978919  0.87880327  0.31819141     0.15600
C756        C  0.90156996  0.93749976  0.33042163    -0.23400
H757        H  0.90004925  0.83902172  0.43937568     0.05800
H758        H  0.93365291  0.82556345  0.41844197     0.09000
H759        H  0.89491058  0.81254015  0.40740786     0.09000
H760        H  0.91767627  0.95612401  0.33872246     0.09000
H761        H  0.87754441  0.94691959  0.32865993     0.09000
H762        H  0.90911635  0.93054511  0.30679165     0.05800
C763        C  0.90296783  0.24988078  0.40700214    -0.20000
C764        C  0.90168630  0.22521769  0.38574548    -0.06600
C765        C  0.90777410  0.23109240  0.35407730     0.14300
C766        C  0.91666777  0.26118363  0.34470509    -0.20100
C767        C  0.92107418  0.28517597  0.36642129    -0.06600
C768        C  0.91271520  0.27976970  0.39773778     0.14300
C769        C  0.91640729  0.30457973  0.42216677    -0.23400
H770        H  0.89721217  0.24558473  0.43110626     0.15600
H771        H  0.92392524  0.26500003  0.32091301     0.15600
C772        C  0.90713826  0.20514641  0.33050053    -0.23400
H773        H  0.89368250  0.30821087  0.43404176     0.05800
H774        H  0.92402599  0.32725007  0.41221562     0.09000
H775        H  0.93402077  0.29709514  0.43948833     0.09000
H776        H  0.88323253  0.19511399  0.32867176     0.09000
H777        H  0.92366288  0.18659549  0.33754221     0.09000
H778        H  0.91412724  0.21349634  0.30712231     0.05800
C779        C  0.76272026  0.13570635  0.39520816    -0.20000
C780        C  0.75854831  0.12873033  0.36357258    -0.06600
C781        C  0.78349987  0.13475077  0.34279544     0.14300
C782        C  0.81273420  0.14388461  0.35454764    -0.20100
C783        C  0.81789624  0.14654753  0.38654567    -0.06600
C784        C  0.79233996  0.14368182  0.40705648     0.14300
C785        C  0.79643728  0.14810234  0.44143737    -0.23400
H786        H  0.74373489  0.13079921  0.41118333     0.15600
H787        H  0.83215908  0.14757565  0.33877067     0.15600
C788        C  0.78021245  0.12906197  0.30845758    -0.23400
H789        H  0.77389515  0.14563028  0.45403283     0.05800
H790        H  0.80604640  0.17173693  0.44618191     0.09000
H791        H  0.81269058  0.13034377  0.45068366     0.09000
H792        H  0.76193047  0.14447907  0.29881487     0.09000
H793        H  0.77379418  0.10438926  0.30394801     0.09000
H794        H  0.80233300  0.13407578  0.29584566     0.05800
C795        C  0.04446696  0.26265192  0.70608936    -0.20000
C796        C  0.03680159  0.28563786  0.68428816    -0.06600
C797        C  0.04201096  0.27937535  0.65245358     0.14300
C798        C  0.05120868  0.24933916  0.64311306    -0.20100
C799        C  0.05505445  0.22536890  0.66484919    -0.06600
C800        C  0.05250098  0.23238193  0.69683793     0.14300
C801        C  0.05540894  0.20741544  0.72130642    -0.23400
H802        H  0.03991837  0.26712155  0.73040961     0.15600
H803        H  0.05436624  0.24423768  0.61871613     0.15600
C804        C  0.03581841  0.30389423  0.62829718    -0.23400
H805        H  0.03870149  0.18811934  0.71633175     0.05800
H806        H  0.07952718  0.19817581  0.72195267     0.09000
H807        H  0.05008080  0.21650608  0.74481191     0.09000
H808        H  0.05074765  0.32465404  0.63291260     0.09000
H809        H  0.01091047  0.31092909  0.62876543     0.09000
H810        H  0.04114844  0.29530767  0.60460305     0.05800
C811        C  0.18725551  0.12873185  0.66114971    -0.20000
C812        C  0.18929940  0.12082091  0.69271349    -0.06600
C813        C  0.16363416  0.12717424  0.71232920     0.14300
C814        C  0.13547508  0.13754439  0.69936468    -0.20100
C815        C  0.13227566  0.14143593  0.66722462    -0.06600
C816        C  0.15888510  0.13864682  0.64811473     0.14300
C817        C  0.15715963  0.14543593  0.61395227    -0.23400
H818        H  0.20683804  0.12359885  0.64606348     0.15600
H819        H  0.11540504  0.14141790  0.71420868     0.15600
C820        C  0.16513019  0.12040633  0.74657888    -0.23400
H821        H  0.18019180  0.14241233  0.60246078     0.05800
H822        H  0.14959873  0.16987279  0.61032286     0.09000
H823        H  0.14013288  0.12937345  0.60274706     0.09000
H824        H  0.18430013  0.13429701  0.75723451     0.09000
H825        H  0.16947627  0.09523446  0.75054922     0.09000
H826        H  0.14297351  0.12652161  0.75849413     0.05800
C827        C  0.90175836  0.24265630  0.66276258    -0.20000
C828        C  0.90885039  0.21477497  0.67807611    -0.06600
C829        C  0.92543297  0.21567185  0.70630379     0.14300
C830        C  0.93720264  0.24431490  0.71700999    -0.20100
C831        C  0.93240045  0.27190722  0.70019335    -0.06600
C832        C  0.91332496  0.27129477  0.67359628     0.14300
C833        C  0.90605428  0.30082340  0.65629976    -0.23400
H834        H  0.88769874  0.24187104  0.64187752     0.15600
H835        H  0.95221771  0.24486752  0.73724882     0.15600
C836        C  0.93116232  0.18644395  0.72470302    -0.23400
H837        H  0.89033891  0.29633766  0.63628217     0.05800
H838        H  0.92791764  0.31169417  0.64741980     0.09000
H839        H  0.89425406  0.31740969  0.67214810     0.09000
H840        H  0.94471617  0.16964791  0.71056924     0.09000
H841        H  0.90844427  0.17564688  0.73132894     0.09000
H842        H  0.94450426  0.19137273  0.74625692     0.05800
C843        C  0.81445378  0.14083254  0.70249294    -0.20000
C844        C  0.81884279  0.14323724  0.67027333    -0.06600
C845        C  0.79257776  0.13964447  0.65065728     0.14300
C846        C  0.76357566  0.13055828  0.66357192    -0.20100
C847        C  0.76044618  0.12407600  0.69547731    -0.06600
C848        C  0.78576222  0.13133899  0.71527402     0.14300
C849        C  0.78355258  0.12599376  0.74973824    -0.23400
H850        H  0.83421491  0.14477816  0.71776344     0.15600
H851        H  0.74431492  0.12471558  0.64826267     0.15600
C852        C  0.79502158  0.14484693  0.61622902    -0.23400
H853        H  0.80557364  0.13259488  0.76178225     0.05800
H854        H  0.77880190  0.10100100  0.75466619     0.09000
H855        H  0.76443961  0.14033312  0.75951601     0.09000
H856        H  0.81087609  0.12748715  0.60568550     0.09000
H857        H  0.80412408  0.16869641  0.61158421     0.09000
H858        H  0.77190442  0.14245959  0.60470578     0.05800
C859        C  0.90791892  0.85752170  0.66263134    -0.20000
C860        C  0.91584631  0.85447667  0.69419794    -0.06600
C861        C  0.91116876  0.88026481  0.71408989     0.14300
C862        C  0.90323265  0.90920232  0.70134923    -0.20100
C863        C  0.89963902  0.91311631  0.66927853    -0.06600
C864        C  0.90047413  0.88670912  0.64983532     0.14300
C865        C  0.89427255  0.88942259  0.61560697    -0.23400
H866        H  0.91154065  0.83784875  0.64729947     0.15600
H867        H  0.90070166  0.92925012  0.71643197     0.15600
C868        C  0.91643607  0.87801046  0.74855676    -0.23400
H869        H  0.89538710  0.86640496  0.60388016     0.05800
H870        H  0.91199599  0.90497144  0.60474936     0.09000
H871        H  0.87060924  0.89918242  0.61176538     0.09000
H872        H  0.94053375  0.87028040  0.75360749     0.09000
H873        H  0.89952637  0.86120222  0.75876797     0.09000
H874        H  0.91299712  0.90078662  0.76027339     0.05800
C875        C  0.82120937  0.00310643  0.70398210    -0.20000
C876        C  0.82291748  0.99687404  0.67215669    -0.06600
C877        C  0.79532985  0.99701518  0.65428483     0.14300
C878        C  0.76697544  0.00554616  0.66830725    -0.20100
C879        C  0.76590397  0.01515912  0.69947024    -0.06600
C880        C  0.79319424  0.01250594  0.71782704     0.14300
C881        C  0.79429619  0.02208279  0.75142331    -0.23400
H882        H  0.84222498  0.00163117  0.71795794     0.15600
H883        H  0.74631240  0.00830206  0.65404508     0.15600
C884        C  0.79600878  0.98914385  0.62029851    -0.23400
H885        H  0.80283410  0.00231496  0.76562228     0.05800
H886        H  0.77119549  0.02887904  0.76066855     0.09000
H887        H  0.81058431  0.04216796  0.75422379     0.09000
H888        H  0.80491605  0.96511628  0.61704243     0.09000
H889        H  0.81154182  0.00582127  0.60789323     0.09000
H890        H  0.77236687  0.99043124  0.60974389     0.05800
C891        C  0.16084760  0.00535747  0.71291989    -0.20000
C892        C  0.18560377  0.01114573  0.69232552    -0.06600
C893        C  0.18188389  0.00338054  0.66065657     0.14300
C894        C  0.15252813  0.99349817  0.64976518    -0.20100
C895        C  0.12692240  0.99105822  0.66986522    -0.06600
C896        C  0.13145092  0.99549346  0.70206975     0.14300
C897        C  0.10488944  0.99173246  0.72481060    -0.23400
H898        H  0.16352913  0.01187777  0.73705795     0.15600
H899        H  0.14926206  0.98860623  0.62533091     0.15600
C900        C  0.20839497  0.00784667  0.63803722    -0.23400
H901        H  0.11217408  0.99782758  0.74877208     0.05800
H902        H  0.09655582  0.96719420  0.72509324     0.09000
H903        H  0.08528947  0.00720459  0.71819914     0.09000
H904        H  0.22880556  0.99396651  0.64565704     0.09000
H905        H  0.21530444  0.03279154  0.63673886     0.09000
H906        H  0.20178740  0.00014612  0.61433901     0.05800
C907        C  0.03865564  0.90860812  0.69690212    -0.20000
C908        C  0.04541384  0.91070454  0.66519441    -0.06600
C909        C  0.04479393  0.88343474  0.64692814     0.14300
C910        C  0.03403400  0.85531358  0.66012422    -0.20100
C911        C  0.02421177  0.85395839  0.69123579    -0.06600
C912        C  0.02813387  0.88064959  0.71015659     0.14300
C913        C  0.01875513  0.88042996  0.74383013    -0.23400
H914        H  0.04068634  0.92934421  0.71116609     0.15600
H915        H  0.03062866  0.83503574  0.64548769     0.15600
C916        C  0.05510202  0.88414022  0.61359481    -0.23400
H917        H  0.02299979  0.90337614  0.75505708     0.05800
H918        H  0.03247000  0.86265153  0.75649010     0.09000
H919        H  0.99353239  0.87492121  0.74605192     0.09000
H920        H  0.07983474  0.89209855  0.61221404     0.09000
H921        H  0.04019277  0.90038927  0.60023302     0.09000
H922        H  0.05340632  0.86072426  0.60270443     0.05800
C923        C  0.34960991  0.14217191  0.20471078    -0.20000
C924        C  0.33004484  0.13886533  0.17884616    -0.06600
C925        C  0.29860202  0.12930829  0.18304549     0.14300
C926        C  0.28824315  0.12098014  0.21272343    -0.20100
C927        C  0.30883307  0.12080281  0.23801766    -0.06600
C928        C  0.33931277  0.13315726  0.23431803     0.14300
C929        C  0.36128148  0.13525673  0.26148516    -0.23400
H930        H  0.37321588  0.15100600  0.20156896     0.15600
H931        H  0.26501546  0.11098187  0.21538707     0.15600
C932        C  0.27585160  0.12594637  0.15652873    -0.23400
H933        H  0.38407228  0.14589381  0.25482967     0.05800
H934        H  0.36583917  0.11168221  0.27097593     0.09000
H935        H  0.35064542  0.14990131  0.27984784     0.09000
H936        H  0.28662835  0.13044006  0.13361697     0.09000
H937        H  0.25623929  0.14245445  0.15977092     0.09000
H938        H  0.26635124  0.10178817  0.15604946     0.05800
C939        C  0.35227189  0.24152779  0.09111469    -0.20000
C940        C  0.33003268  0.21802628  0.09680346    -0.06600
C941        C  0.29776874  0.22520764  0.09490662     0.14300
C942        C  0.28878886  0.25514620  0.08584041    -0.20100
C943        C  0.31103910  0.27732259  0.07631703    -0.06600
C944        C  0.34311492  0.27113388  0.08094023     0.14300
C945        C  0.36801161  0.29474278  0.07293263    -0.23400
H946        H  0.37693675  0.23651044  0.09383518     0.15600
H947        H  0.26416769  0.25959500  0.08181431     0.15600
C948        C  0.27208237  0.20138461  0.09971233    -0.23400
H949        H  0.38284895  0.29924325  0.09358057     0.05800
H950        H  0.35785655  0.31727942  0.06549763     0.09000
H951        H  0.38286460  0.28563992  0.05390288     0.09000
H952        H  0.25755999  0.20819781  0.11991129     0.09000
H953        H  0.28091188  0.17753637  0.10350662     0.09000
H954        H  0.25699193  0.20041242  0.07878860     0.05800
C955        C  0.30281847  0.99505461  0.19111661    -0.20000
C956        C  0.33500358  0.99149147  0.18608442    -0.06600
C957        C  0.35585642  0.99523410  0.21116997     0.14300
C958        C  0.34423865  0.00547104  0.23991246    -0.20100
C959        C  0.31242557  0.01288049  0.24376603    -0.06600
C960        C  0.29125858  0.00578755  0.21953559     0.14300
C961        C  0.25673889  0.01215176  0.22252919    -0.23400
H962        H  0.28675361  0.99089102  0.17210148     0.15600
H963        H  0.36052292  0.01118760  0.25833566     0.15600
C964        C  0.39029314  0.98904951  0.20753287    -0.23400
H965        H  0.24382306  0.00599064  0.20103665     0.05800
H966        H  0.25276988  0.03726305  0.22722156     0.09000
H967        H  0.24674128  0.99797486  0.24165273     0.09000
H968        H  0.40067638  0.00542984  0.19045000     0.09000
H969        H  0.39381643  0.96474036  0.19948051     0.09000
H970        H  0.40302500  0.99209689  0.22976564     0.05800
C971        C  0.35093273  0.88908252  0.09936975    -0.20000
C972        C  0.32956233  0.91345260  0.10251659    -0.06600
C973        C  0.29747860  0.90788740  0.09663482     0.14300
C974        C  0.28804135  0.87879920  0.08487038    -0.20100
C975        C  0.30992482  0.85527567  0.07906361    -0.06600
C976        C  0.34140310  0.85992032  0.08808262     0.14300
C977        C  0.36569737  0.83501297  0.08405411    -0.23400
H978        H  0.37533255  0.89305422  0.10508549     0.15600
H979        H  0.26404066  0.87543053  0.07741260     0.15600
C980        C  0.27349368  0.93310596  0.10098930    -0.23400
H981        H  0.37699990  0.83026762  0.10670591     0.05800
H982        H  0.38377039  0.84304289  0.06731756     0.09000
H983        H  0.35546735  0.81277190  0.07551002     0.09000
H984        H  0.27987191  0.95376946  0.08677897     0.09000
H985        H  0.27231714  0.93998152  0.12573867     0.09000
H986        H  0.24976474  0.92516103  0.09392701     0.05800
C987        C  0.34116285  0.00050410  0.81684606    -0.20000
C988        C  0.30986179  0.01012903  0.81340061    -0.06600
C989        C  0.28962932  0.00781510  0.83942490     0.14300
C990        C  0.30176590  0.99881728  0.86821430    -0.20100
C991        C  0.33366946  0.99285129  0.87218453    -0.06600
C992        C  0.35345286  0.99269680  0.84606014     0.14300
C993        C  0.38764102  0.98515350  0.84918628    -0.23400
H994        H  0.35693844  0.00284352  0.79729132     0.15600
H995        H  0.28630713  0.99746790  0.88812436     0.15600
C996        C  0.25562748  0.01686067  0.83866332    -0.23400
H997        H  0.39987521  0.98612238  0.82649364     0.05800
H998        H  0.39031714  0.96132603  0.85882148     0.09000
H999        H  0.39909325  0.00220923  0.86494231     0.09000
H1000       H  0.24733762  0.02407041  0.81559688     0.09000
H1001       H  0.25165473  0.03652917  0.85490215     0.09000
H1002       H  0.24104361  0.99667349  0.84607831     0.05800
C1003       C  0.35347274  0.88602297  0.95344296    -0.20000
C1004       C  0.33160244  0.91000710  0.95044162    -0.06600
C1005       C  0.29936184  0.90311020  0.95401545     0.14300
C1006       C  0.29011623  0.87307489  0.96324691    -0.20100
C1007       C  0.31233228  0.85028946  0.97032282    -0.06600
C1008       C  0.34415976  0.85611810  0.96316221     0.14300
C1009       C  0.36846139  0.83134224  0.96805586    -0.23400
H1010       H  0.37799604  0.89103151  0.94923718     0.15600
H1011       H  0.26578524  0.86867796  0.96899055     0.15600
C1012       C  0.27479220  0.92794908  0.95071356    -0.23400
H1013       H  0.39215276  0.83965740  0.96125810     0.05800
H1014       H  0.36254841  0.81061493  0.95375183     0.09000
H1015       H  0.36938644  0.82434787  0.99278240     0.09000
H1016       H  0.27416823  0.93678079  0.92659172     0.09000
H1017       H  0.28000676  0.94752632  0.96677811     0.09000
H1018       H  0.25105281  0.91886485  0.95628175     0.05800
C1019       C  0.29673221  0.20683453  0.96697375    -0.20000
C1020       C  0.32532119  0.20923631  0.95140083    -0.06600
C1021       C  0.33702204  0.23894330  0.94287303     0.14300
C1022       C  0.32146667  0.26563423  0.95328463    -0.20100
C1023       C  0.29459987  0.26317475  0.97180425    -0.06600
C1024       C  0.28103636  0.23343271  0.97707156     0.14300
C1025       C  0.25135027  0.22879737  0.99540460    -0.23400
H1026       H  0.28691557  0.18396764  0.97187606     0.15600
H1027       H  0.33204919  0.28837540  0.94952587     0.15600
C1028       C  0.36648513  0.24334591  0.92414830    -0.23400
H1029       H  0.23417072  0.21553335  0.98120595     0.05800
H1030       H  0.24025952  0.25100401  0.00219052     0.09000
H1031       H  0.25645937  0.21536030  0.01677852     0.09000
H1032       H  0.36099259  0.25632422  0.90259101     0.09000
H1033       H  0.37755102  0.22103003  0.91752913     0.09000
H1034       H  0.38376532  0.25703059  0.93782442     0.05800
C1035       C  0.35712860  0.13164811  0.84525266    -0.20000
C1036       C  0.33503198  0.13209366  0.86926813    -0.06600
C1037       C  0.30295020  0.12758586  0.86217469     0.14300
C1038       C  0.29408114  0.12111578  0.83165109    -0.20100
C1039       C  0.31651403  0.11670741  0.80842054    -0.06600
C1040       C  0.34818977  0.12402650  0.81481973     0.14300
C1041       C  0.37262665  0.12185950  0.78977811    -0.23400
H1042       H  0.38144087  0.13670194  0.85044812     0.15600
H1043       H  0.26985100  0.11505054  0.82698552     0.15600
C1044       C  0.27751926  0.12736768  0.88645691    -0.23400
H1045       H  0.39620143  0.12835482  0.79855925     0.05800
H1046       H  0.36658910  0.13796539  0.77059698     0.09000
H1047       H  0.37384374  0.09774768  0.78057353     0.09000
H1048       H  0.26077571  0.14642639  0.88164619     0.09000
H1049       H  0.28644780  0.13019510  0.91038027     0.09000
H1050       H  0.26476545  0.10473069  0.88562761     0.05800
C1051       C  0.64679670  0.22807524  0.09108297    -0.20000
C1052       C  0.61520764  0.22455466  0.09892620    -0.06600
C1053       C  0.59589246  0.25099194  0.10062386     0.14300
C1054       C  0.60775914  0.27995257  0.09080574    -0.20100
C1055       C  0.63841990  0.28269576  0.07929999    -0.06600
C1056       C  0.65869341  0.25684485  0.08120831     0.14300
C1057       C  0.69207432  0.25877117  0.06994103    -0.23400
H1058       H  0.66188212  0.20786661  0.09153452     0.15600
H1059       H  0.59219034  0.29970283  0.08900142     0.15600
C1060       C  0.56272977  0.24841536  0.11212167    -0.23400
H1061       H  0.70442598  0.23627457  0.07285223     0.05800
H1062       H  0.70503640  0.27674078  0.08336278     0.09000
H1063       H  0.69271305  0.26485590  0.04494133     0.09000
H1064       H  0.56262146  0.23937311  0.13623086     0.09000
H1065       H  0.54920652  0.23222750  0.09708191     0.09000
H1066       H  0.55087651  0.27137086  0.11206150     0.05800
C1067       C  0.60855516  0.13525894  0.23486166    -0.20000
C1068       C  0.64052071  0.12843985  0.23842588    -0.06600
C1069       C  0.66111032  0.13430685  0.21332394     0.14300
C1070       C  0.64880807  0.14329588  0.18469041    -0.20100
C1071       C  0.61646546  0.14558868  0.18012967    -0.06600
C1072       C  0.59612499  0.14271707  0.20568827     0.14300
C1073       C  0.56131916  0.14635080  0.20198360    -0.23400
H1074       H  0.59271660  0.13031792  0.25389590     0.15600
H1075       H  0.66450881  0.14693395  0.16524410     0.15600
C1076       C  0.69576493  0.12822006  0.21483891    -0.23400
H1077       H  0.54887437  0.14379884  0.22444662     0.05800
H1078       H  0.55210739  0.12822561  0.18599937     0.09000
H1079       H  0.55607385  0.16977346  0.19244988     0.09000
H1080       H  0.70194858  0.10968039  0.19799252     0.09000
H1081       H  0.70375417  0.12078424  0.23800658     0.09000
H1082       H  0.70878417  0.14985330  0.20874275     0.05800
C1083       C  0.59514539  0.24483726  0.95399199    -0.20000
C1084       C  0.61648427  0.22021341  0.95342322    -0.06600
C1085       C  0.64834245  0.22616862  0.96020106     0.14300
C1086       C  0.65767382  0.25630084  0.96903916    -0.20100
C1087       C  0.63573583  0.28021110  0.97279715    -0.06600
C1088       C  0.60433075  0.27471466  0.96388124     0.14300
C1089       C  0.58015745  0.29994029  0.96676658    -0.23400
H1090       H  0.57097551  0.24036135  0.94773555     0.15600
H1091       H  0.68156824  0.26012391  0.97667015     0.15600
C1092       C  0.67269032  0.20090816  0.96043338    -0.23400
H1093       H  0.55689946  0.29194984  0.95835682     0.05800
H1094       H  0.58748293  0.32046230  0.95280749     0.09000
H1095       H  0.57744605  0.30713793  0.99130120     0.09000
H1096       H  0.69100431  0.20628532  0.94295109     0.09000
H1097       H  0.66290584  0.17750094  0.95539002     0.09000
H1098       H  0.68371310  0.19978875  0.98369950     0.05800
C1099       C  0.59261187  0.13837226  0.84752802    -0.20000
C1100       C  0.61393708  0.13967697  0.87221035    -0.06600
C1101       C  0.64579456  0.13288877  0.86670254     0.14300
C1102       C  0.65517065  0.12334673  0.83713069    -0.20100
C1103       C  0.63334831  0.11877732  0.81329466    -0.06600
C1104       C  0.60195236  0.12775746  0.81811636     0.14300
C1105       C  0.57815752  0.12453926  0.79257789    -0.23400
H1106       H  0.56844487  0.14467126  0.85156728     0.15600
H1107       H  0.67907467  0.11570500  0.83378640     0.15600
C1108       C  0.67023196  0.13332040  0.89190296    -0.23400
H1109       H  0.55488179  0.13323545  0.79987281     0.05800
H1110       H  0.57540928  0.09973242  0.78575433     0.09000
H1111       H  0.58595823  0.13824681  0.77213263     0.09000
H1112       H  0.66065981  0.13879516  0.91506619     0.09000
H1113       H  0.68855630  0.15087072  0.88620300     0.09000
H1114       H  0.68120898  0.10999266  0.89355627     0.05800
C1115       C  0.60178281  0.88722474  0.95912002    -0.20000
C1116       C  0.62257843  0.91261945  0.95791943    -0.06600
C1117       C  0.65458671  0.90797239  0.96466616     0.14300
C1118       C  0.66453636  0.87864284  0.97476433    -0.20100
C1119       C  0.64318740  0.85408720  0.97892535    -0.06600
C1120       C  0.61182273  0.85790390  0.96945659     0.14300
C1121       C  0.58873621  0.83135612  0.97207347    -0.23400
H1122       H  0.57750910  0.89059275  0.95280557     0.15600
H1123       H  0.68840538  0.87581576  0.98272311     0.15600
C1124       C  0.67802256  0.93430231  0.96305097    -0.23400
H1125       H  0.56526047  0.83801911  0.96341663     0.05800
H1126       H  0.58624122  0.82398088  0.99660372     0.09000
H1127       H  0.59710550  0.81131917  0.95812948     0.09000
H1128       H  0.67005655  0.95414622  0.97749873     0.09000
H1129       H  0.68080662  0.94191356  0.93871157     0.09000
H1130       H  0.70142293  0.92711654  0.97149018     0.05800
C1131       C  0.60138134  0.98970736  0.85230562    -0.20000
C1132       C  0.62108346  0.99420371  0.87788946    -0.06600
C1133       C  0.65173925  0.00571381  0.87322284     0.14300
C1134       C  0.66126561  0.01444385  0.84332747    -0.20100
C1135       C  0.64059207  0.01271117  0.81810568    -0.06600
C1136       C  0.61087138  0.99868212  0.82242966     0.14300
C1137       C  0.58833155  0.99437575  0.79600972    -0.23400
H1138       H  0.57831326  0.97961554  0.85572903     0.15600
H1139       H  0.68378223  0.02582309  0.84022319     0.15600
C1140       C  0.67383713  0.01038209  0.90001226    -0.23400
H1141       H  0.56703709  0.00842424  0.80020794     0.05800
H1142       H  0.58158264  0.96939130  0.79424710     0.09000
H1143       H  0.59873245  0.00148242  0.77350089     0.09000
H1144       H  0.67878019  0.98769173  0.91107763     0.09000
H1145       H  0.66320264  0.02625500  0.91733356     0.09000
H1146       H  0.69648556  0.02069983  0.89245189     0.05800
C1147       C  0.65224056  0.00277703  0.18436958    -0.20000
C1148       C  0.62038864  0.99603578  0.18028333    -0.06600
C1149       C  0.59990986  0.99757730  0.20584083     0.14300
C1150       C  0.61112927  0.00909146  0.23421230    -0.20100
C1151       C  0.64229483  0.01924047  0.23735016    -0.06600
C1152       C  0.66342436  0.01462905  0.21256773     0.14300
C1153       C  0.69718144  0.02477635  0.21499205    -0.23400
H1154       H  0.66809988  0.00011168  0.16495067     0.15600
H1155       H  0.59487107  0.01311121  0.25305555     0.15600
C1156       C  0.56619126  0.98759478  0.20295956    -0.23400
H1157       H  0.71033055  0.01982903  0.19336192     0.05800
H1158       H  0.70867340  0.01208952  0.23422442     0.09000
H1159       H  0.69871165  0.05023684  0.21943855     0.09000
H1160       H  0.56493540  0.96277973  0.19569383     0.09000
H1161       H  0.55417455  0.00218587  0.18545722     0.09000
H1162       H  0.55349042  0.98994642  0.22528429     0.05800
C1163       C  0.61156335  0.85539405  0.09504472    -0.20000
C1164       C  0.64355605  0.85207193  0.08794591    -0.06600
C1165       C  0.66397075  0.87751883  0.09375607     0.14300
C1166       C  0.65151355  0.90638285  0.10223846    -0.20100
C1167       C  0.61912735  0.91078863  0.10471703    -0.06600
C1168       C  0.59897075  0.88468844  0.10253013     0.14300
C1169       C  0.56422830  0.88781967  0.10717321    -0.23400
H1170       H  0.59580687  0.83604119  0.09038283     0.15600
H1171       H  0.66719524  0.92611080  0.10545875     0.15600
C1172       C  0.69870668  0.87600285  0.08810950    -0.23400
H1173       H  0.55202369  0.86495202  0.10530243     0.05800
H1174       H  0.55435197  0.90348413  0.08929003     0.09000
H1175       H  0.55943820  0.89757437  0.13051633     0.09000
H1176       H  0.71133500  0.88250776  0.10966158     0.09000
H1177       H  0.70663445  0.85252869  0.08121923     0.09000
H1178       H  0.70531624  0.89264311  0.06947272     0.05800
C1179       C  0.02679753  0.38553346  0.21300024    -0.20000
C1180       C  0.02647090  0.40476186  0.23933389    -0.06600
C1181       C  0.03943208  0.43509617  0.23738953     0.14300
C1182       C  0.05051439  0.44621549  0.20872855    -0.20100
C1183       C  0.04794056  0.42792330  0.18190846    -0.06600
C1184       C  0.03677457  0.39696878  0.18418690     0.14300
C1185       C  0.03389620  0.37655681  0.15587862    -0.23400
H1186       H  0.01591355  0.36265129  0.21427033     0.15600
H1187       H  0.06021076  0.46956577  0.20699888     0.15600
C1188       C  0.03987832  0.45616215  0.26528574    -0.23400
H1189       H  0.02395777  0.35326464  0.16159887     0.05800
H1190       H  0.05727208  0.37309298  0.14527937     0.09000
H1191       H  0.01824653  0.38777317  0.13871648     0.09000
H1192       H  0.05320686  0.44491204  0.28425579     0.09000
H1193       H  0.01564686  0.46061372  0.27330925     0.09000
H1194       H  0.05109223  0.47898846  0.26001338     0.05800
C1195       C  0.13524111  0.39326715  0.10865604    -0.20000
C1196       C  0.13236925  0.42574246  0.10540103    -0.06600
C1197       C  0.15841664  0.44323993  0.09485178     0.14300
C1198       C  0.18528543  0.42741862  0.08469310    -0.20100
C1199       C  0.18603887  0.39463821  0.08369353    -0.06600
C1200       C  0.16169089  0.37754702  0.09797064     0.14300
C1201       C  0.16184838  0.34237898  0.09830218    -0.23400
H1202       H  0.11570329  0.37983026  0.11770851     0.15600
H1203       H  0.20395672  0.44047221  0.07354756     0.15600
C1204       C  0.15782631  0.47831040  0.09355870    -0.23400
H1205       H  0.14098000  0.33264605  0.11032156     0.05800
H1206       H  0.18300732  0.33405750  0.11056925     0.09000
H1207       H  0.16186757  0.33316836  0.07425439     0.09000
H1208       H  0.15240458  0.48780941  0.11686499     0.09000
H1209       H  0.13998287  0.48625933  0.07678088     0.09000
H1210       H  0.18073497  0.48810324  0.08607141     0.05800
C1211       C  0.13705426  0.41027819  0.94737588    -0.20000
C1212       C  0.10742397  0.40009848  0.95745599    -0.06600
C1213       C  0.10480678  0.37354794  0.97638160     0.14300
C1214       C  0.13219801  0.35903071  0.98668448    -0.20100
C1215       C  0.16187901  0.37136790  0.97925596    -0.06600
C1216       C  0.16436158  0.39645588  0.95841293     0.14300
C1217       C  0.19577591  0.41023700  0.95000787    -0.23400
H1218       H  0.13879343  0.43019711  0.93199206     0.15600
H1219       H  0.13050729  0.34017177  0.00334481     0.15600
C1220       C  0.07333162  0.36134476  0.98644862    -0.23400
H1221       H  0.19351195  0.42996158  0.93351631     0.05800
H1222       H  0.21050559  0.39214364  0.93899274     0.09000
H1223       H  0.20773294  0.41908358  0.97111735     0.09000
H1224       H  0.05917053  0.35511258  0.96576974     0.09000
H1225       H  0.06094292  0.37948367  0.99997975     0.09000
H1226       H  0.07549507  0.34026613  0.00121282     0.05800
C1227       C  0.06855653  0.40310965  0.81912480    -0.20000
C1228       C  0.03928918  0.41094958  0.80720219    -0.06600
C1229       C  0.02575787  0.43929972  0.81755060     0.14300
C1230       C  0.03468558  0.45140800  0.84647955    -0.20100
C1231       C  0.05971789  0.43826264  0.86283614    -0.06600
C1232       C  0.08016659  0.41852488  0.84552026     0.14300
C1233       C  0.11390259  0.41326403  0.85405413    -0.23400
H1234       H  0.08105323  0.38331191  0.80983388     0.15600
H1235       H  0.01995999  0.46878633  0.85708392     0.15600
C1236       C  0.99713725  0.45243285  0.80214171    -0.23400
H1237       H  0.12903670  0.41971524  0.83411246     0.05800
H1238       H  0.11778984  0.38828989  0.85952929     0.09000
H1239       H  0.12130514  0.42795864  0.87393262     0.09000
H1240       H  0.97668015  0.45031416  0.81790909     0.09000
H1241       H  0.99167168  0.44002689  0.78018885     0.09000
H1242       H  0.00117225  0.47742124  0.79667611     0.05800
C1243       C  0.81365130  0.39220522  0.95116729    -0.20000
C1244       C  0.81899033  0.42445017  0.94860873    -0.06600
C1245       C  0.79359985  0.44505638  0.95185225     0.14300
C1246       C  0.76416142  0.43296681  0.96033695    -0.20100
C1247       C  0.76015204  0.40111096  0.96732858    -0.06600
C1248       C  0.78466190  0.38027421  0.96060243     0.14300
C1249       C  0.78141966  0.34572256  0.96643499    -0.23400
H1250       H  0.83293804  0.37631408  0.94763903     0.15600
H1251       H  0.74539816  0.44893248  0.96578728     0.15600
C1252       C  0.79753149  0.47968065  0.94729071    -0.23400
H1253       H  0.80328092  0.33307293  0.96083008     0.05800
H1254       H  0.76253491  0.33591823  0.95169197     0.09000
H1255       H  0.77589500  0.34123825  0.99115248     0.09000
H1256       H  0.80726121  0.48442902  0.92389547     0.09000
H1257       H  0.81344198  0.48950388  0.96510062     0.09000
H1258       H  0.77487205  0.49201774  0.94933100     0.05800
C1259       C  0.92695931  0.38129207  0.89061571    -0.20000
C1260       C  0.91205822  0.40955739  0.88436158    -0.06600
C1261       C  0.90832540  0.41939470  0.85337347     0.14300
C1262       C  0.92212954  0.40205168  0.82947788    -0.20100
C1263       C  0.93940129  0.37513480  0.83598947    -0.06600
C1264       C  0.94065674  0.36391862  0.86673921     0.14300
C1265       C  0.95782161  0.33436852  0.87439864    -0.23400
H1266       H  0.92841680  0.37316275  0.91435200     0.15600
H1267       H  0.92180873  0.41098542  0.80597867     0.15600
C1268       C  0.89092295  0.44880424  0.84568969    -0.23400
H1269       H  0.95590001  0.32848708  0.89939420     0.05800
H1270       H  0.98301751  0.33687997  0.86868314     0.09000
H1271       H  0.94773695  0.31474923  0.86081659     0.09000
H1272       H  0.90212599  0.46897109  0.85752537     0.09000
H1273       H  0.86625158  0.44668030  0.85346207     0.09000
H1274       H  0.89086771  0.45348513  0.82037622     0.05800
C1275       C  0.89819146  0.44310854  0.20691506    -0.20000
C1276       C  0.89948173  0.42244602  0.18179151    -0.06600
C1277       C  0.90688515  0.39082712  0.18705878     0.14300
C1278       C  0.91590511  0.38136731  0.21683425    -0.20100
C1279       C  0.91839599  0.40295115  0.24117913    -0.06600
C1280       C  0.90754726  0.43364569  0.23663717     0.14300
C1281       C  0.90803622  0.45683526  0.26282366    -0.23400
H1282       H  0.89092085  0.46694206  0.20302030     0.15600
H1283       H  0.92467325  0.35795073  0.22020800     0.15600
C1284       C  0.90716941  0.36749448  0.16092046    -0.23400
H1285       H  0.89829145  0.47964518  0.25563048     0.05800
H1286       H  0.93236352  0.46083083  0.27092759     0.09000
H1287       H  0.89375782  0.44773081  0.28236728     0.09000
H1288       H  0.92346537  0.37550223  0.14247704     0.09000
H1289       H  0.88333465  0.36485793  0.15107565     0.09000
H1290       H  0.91487013  0.34415066  0.16886422     0.05800
C1291       C  0.76701019  0.43222697  0.08440839    -0.20000
C1292       C  0.76361780  0.40070184  0.07605274    -0.06600
C1293       C  0.78842947  0.37988962  0.08194395     0.14300
C1294       C  0.81663314  0.39150247  0.09393216    -0.20100
C1295       C  0.82107265  0.42352485  0.09888270    -0.06600
C1296       C  0.79571039  0.44402161  0.09519802     0.14300
C1297       C  0.79912500  0.47835143  0.10182348    -0.23400
H1298       H  0.74821489  0.44822520  0.07920506     0.15600
H1299       H  0.83599084  0.37578566  0.09782346     0.15600
C1300       C  0.78630577  0.34598298  0.07288916    -0.23400
H1301       H  0.77680689  0.49091259  0.09815309     0.05800
H1302       H  0.81694195  0.48881779  0.08620288     0.09000
H1303       H  0.80642755  0.48185682  0.12626729     0.09000
H1304       H  0.78246705  0.34384472  0.04755968     0.09000
H1305       H  0.76666121  0.33456523  0.08539197     0.09000
H1306       H  0.80806223  0.33324127  0.07865940     0.05800
C1307       C  0.01423230  0.75583660  0.20365908    -0.20000
C1308       C  0.02012031  0.74082227  0.23201996    -0.06600
C1309       C  0.03997114  0.71472474  0.23251591     0.14300
C1310       C  0.05136674  0.70268675  0.20438877    -0.20100
C1311       C  0.04253273  0.71581570  0.17592191    -0.06600
C1312       C  0.02476845  0.74333648  0.17557529     0.14300
C1313       C  0.01615012  0.75894242  0.14551076    -0.23400
H1314       H  0.99851740  0.77557225  0.20326856     0.15600
H1315       H  0.06632670  0.68239492  0.20449848     0.15600
C1316       C  0.04808866  0.69909717  0.26261916    -0.23400
H1317       H  0.00204759  0.78023325  0.14940796     0.05800
H1318       H  0.00216179  0.74265347  0.13099590     0.09000
H1319       H  0.03769118  0.76578186  0.13277117     0.09000
H1320       H  0.02652981  0.69028317  0.27408780     0.09000
H1321       H  0.05991339  0.71612056  0.27813882     0.09000
H1322       H  0.06407856  0.67912775  0.25901061     0.05800
C1323       C  0.16268753  0.75343611  0.08239248    -0.20000
C1324       C  0.18795109  0.73276665  0.08171500    -0.06600
C1325       C  0.18409296  0.70246309  0.09402794     0.14300
C1326       C  0.15420977  0.69233567  0.10334333    -0.20100
C1327       C  0.12832384  0.71201150  0.10062217    -0.06600
C1328       C  0.13277103  0.74327041  0.09120963     0.14300
C1329       C  0.10562072  0.76534856  0.08855006    -0.23400
H1330       H  0.16557082  0.77649012  0.07243032     0.15600
H1331       H  0.15084362  0.66878819  0.11188140     0.15600
C1332       C  0.21131757  0.68046014  0.09561073    -0.23400
H1333       H  0.11305861  0.78849534  0.07954151     0.05800
H1334       H  0.09483462  0.76899898  0.11163332     0.09000
H1335       H  0.08784307  0.75553760  0.07245653     0.09000
H1336       H  0.23008259  0.69095016  0.11010416     0.09000
H1337       H  0.22066807  0.67594123  0.07205304     0.09000
H1338       H  0.20446065  0.65773194  0.10600303     0.05800
C1339       C  0.89149640  0.69695469  0.20386754    -0.20000
C1340       C  0.89755671  0.71428188  0.17690700    -0.06600
C1341       C  0.90884947  0.74515557  0.17957650     0.14300
C1342       C  0.91601872  0.75717923  0.20898222    -0.20100
C1343       C  0.91399687  0.73839420  0.23560302    -0.06600
C1344       C  0.89991244  0.70861568  0.23322020     0.14300
C1345       C  0.89553184  0.68866487  0.26157865    -0.23400
H1346       H  0.88127096  0.67385370  0.20181975     0.15600
H1347       H  0.92734714  0.77982056  0.21069837     0.15600
C1348       C  0.91521609  0.76471304  0.15124036    -0.23400
H1349       H  0.88395233  0.66612034  0.25589555     0.05800
H1350       H  0.88070473  0.70116048  0.27860008     0.09000
H1351       H  0.91852292  0.68360621  0.27231991     0.09000
H1352       H  0.89321067  0.76831954  0.13817629     0.09000
H1353       H  0.93239590  0.75273567  0.13612975     0.09000
H1354       H  0.92497594  0.78797074  0.15738158     0.05800
C1355       C  0.78178634  0.74374167  0.07490762    -0.20000
C1356       C  0.75704456  0.72229166  0.07853337    -0.06600
C1357       C  0.76304564  0.69299467  0.09212514     0.14300
C1358       C  0.79384467  0.68523057  0.10028992    -0.20100
C1359       C  0.81873272  0.70598059  0.09473799    -0.06600
C1360       C  0.81256872  0.73583570  0.08257407     0.14300
C1361       C  0.83862526  0.75889057  0.07655454    -0.23400
H1362       H  0.77739189  0.76579183  0.06347195     0.15600
H1363       H  0.79862433  0.66277374  0.11070463     0.15600
C1364       C  0.73699284  0.66974110  0.09713413    -0.23400
H1365       H  0.82984129  0.78071644  0.06591528     0.05800
H1366       H  0.85598397  0.74851496  0.06050482     0.09000
H1367       H  0.85034323  0.76509547  0.09864991     0.09000
H1368       H  0.72627275  0.66305309  0.07467040     0.09000
H1369       H  0.71881865  0.68020686  0.11220448     0.09000
H1370       H  0.74553797  0.64818452  0.10847913     0.05800
C1371       C  0.89697466  0.69829128  0.85445511    -0.20000
C1372       C  0.89809059  0.71655539  0.88136189    -0.06600
C1373       C  0.90709988  0.74822698  0.87917963     0.14300
C1374       C  0.91707561  0.76021956  0.85049736    -0.20100
C1375       C  0.91882326  0.74110552  0.82411916    -0.06600
C1376       C  0.90710501  0.71025087  0.82585396     0.14300
C1377       C  0.90710665  0.68891547  0.79817304    -0.23400
H1378       H  0.88893436  0.67430524  0.85592499     0.15600
H1379       H  0.92680472  0.78361087  0.84941190     0.15600
C1380       C  0.90791545  0.76885209  0.90742081    -0.23400
H1381       H  0.88303680  0.67993673  0.79410522     0.05800
H1382       H  0.92289421  0.66895616  0.80254130     0.09000
H1383       H  0.91491059  0.70102796  0.77677107     0.09000
H1384       H  0.92358728  0.75864415  0.92517756     0.09000
H1385       H  0.88402227  0.77104086  0.91714594     0.09000
H1386       H  0.91665458  0.79264798  0.90185269     0.05800
C1387       C  0.78875003  0.68629218  0.95285115    -0.20000
C1388       C  0.81508334  0.70473999  0.95989642    -0.06600
C1389       C  0.81112005  0.73335449  0.97544373     0.14300
C1390       C  0.78107050  0.74269184  0.98411323    -0.20100
C1391       C  0.75493399  0.72330634  0.97927498    -0.06600
C1392       C  0.75870735  0.69499813  0.96296990     0.14300
C1393       C  0.73118810  0.67364554  0.95737608    -0.23400
H1394       H  0.79185776  0.66466709  0.94026646     0.15600
H1395       H  0.77837492  0.76375882  0.99773922     0.15600
C1396       C  0.83883494  0.75325967  0.98443887    -0.23400
H1397       H  0.73800641  0.65262998  0.94401120     0.05800
H1398       H  0.71301264  0.68623396  0.94405806     0.09000
H1399       H  0.72110149  0.66580076  0.97978212     0.09000
H1400       H  0.85156150  0.76102143  0.96339269     0.09000
H1401       H  0.85484436  0.73957398  0.99933634     0.09000
H1402       H  0.83168720  0.77431904  0.99756638     0.05800
C1403       C  0.15421496  0.68647344  0.95680258    -0.20000
C1404       C  0.13012307  0.70817823  0.95360704    -0.06600
C1405       C  0.13661886  0.74022799  0.95832449     0.14300
C1406       C  0.16645490  0.74943644  0.96848819    -0.20100
C1407       C  0.18969662  0.72736276  0.97466089    -0.06600
C1408       C  0.18396661  0.69571022  0.96713077     0.14300
C1409       C  0.20828352  0.67099628  0.97199566    -0.23400
H1410       H  0.14957200  0.66207412  0.95194028     0.15600
H1411       H  0.17055766  0.77356639  0.97490700     0.15600
C1412       C  0.11159298  0.76455436  0.95467289    -0.23400
H1413       H  0.23089569  0.68094242  0.98003535     0.05800
H1414       H  0.21258965  0.65864624  0.94980427     0.09000
H1415       H  0.19982159  0.65392975  0.98949408     0.09000
H1416       H  0.09144863  0.75885677  0.96995386     0.09000
H1417       H  0.10356444  0.76548618  0.93027066     0.09000
H1418       H  0.12029265  0.78818141  0.96096656     0.05800
C1419       C  0.03373949  0.70273832  0.81784631    -0.20000
C1420       C  0.02939950  0.73520468  0.81553014    -0.06600
C1421       C  0.04052741  0.75447327  0.83978333     0.14300
C1422       C  0.05109408  0.74078451  0.86723416    -0.20100
C1423       C  0.05109167  0.70830986  0.87117505    -0.06600
C1424       C  0.04411543  0.68900600  0.84558239     0.14300
C1425       C  0.04709765  0.65410340  0.84757931    -0.23400
H1426       H  0.02523777  0.68788409  0.79930058     0.15600
H1427       H  0.05798983  0.75571567  0.88637583     0.15600
C1428       C  0.03908316  0.78953626  0.83868288    -0.23400
H1429       H  0.04176669  0.64271608  0.82505734     0.05800
H1430       H  0.03059736  0.64459755  0.86506750     0.09000
H1431       H  0.07137755  0.64796890  0.85419183     0.09000
H1432       H  0.02367260  0.79812443  0.85751154     0.09000
H1433       H  0.03010801  0.79855102  0.81645369     0.09000
H1434       H  0.06294708  0.79934205  0.84205735     0.05800
loop_ 
_geom_bond_atom_site_label_1 
_geom_bond_atom_site_label_2 
_geom_bond_distance 
_geom_bond_site_symmetry_2 
_ccdc_geom_bond_type 
C1            C2   1.411       .  A
C1            C6   1.391       .  A
C1         C1404   1.479       .  S
C2            C3   1.413       .  A
C2            H7   1.084       .  S
C3            C4   1.413       .  A
C3           C75   1.489       .  S
C4            C5   1.413       .  A
C4            H8   1.083       .  S
C5            C6   1.393       .  A
C5         C1423   1.483       .  S
C6            H9   1.085       .  S
C10          C11   1.395       .  A
C10          C15   1.410       .  A
C10        C1388   1.480       .  S
C11          C12   1.395       .  A
C11          H16   1.085       .  S
C12          C13   1.412       .  A
C12        C1372   1.481       .  S
C13          C14   1.412       .  A
C13          H17   1.084       .  S
C14          C15   1.412       .  A
C14          C81   1.489       .  S
C15          H18   1.084       .  S
C19          C20   1.414       .  A
C19          C24   1.392       .  A
C19        C1340   1.480       .  S
C20          C21   1.415       .  A
C20          H25   1.083       .  S
C21          C22   1.412       .  A
C21          C98   1.491       .  S
C22          C23   1.410       .  A
C22          H26   1.084       .  S
C23          C24   1.392       .  A
C23        C1359   1.477       .  S
C24          H27   1.085       .  S
C28          C29   1.391       .  A
C28          C33   1.410       .  A
C28        C1311   1.475       .  S
C29          C30   1.392       .  A
C29          H34   1.085       .  S
C30          C31   1.410       .  A
C30        C1327   1.476       .  S
C31          C32   1.411       .  A
C31          H35   1.084       .  S
C32          C33   1.410       .  A
C32         C104   1.484       .  S
C33          H36   1.084       .  S
C37          C38   1.391       .  A
C37          C42   1.413       .  A
C37        C1276   1.478       .  S
C38          C39   1.391       .  A
C38          H43   1.085       .  S
C39          C40   1.410       .  A
C39        C1295   1.476       .  S
C40          C41   1.410       .  A
C40          H44   1.084       .  S
C41          C42   1.413       .  A
C41         C101   1.488       .  S
C42          H45   1.084       .  S
C46          C47   1.412       .  A
C46          C51   1.395       .  A
C46        C1244   1.482       .  S
C47          C48   1.411       .  A
C47          H52   1.083       .  S
C48          C49   1.410       .  A
C48          C78   1.484       .  S
C49          C50   1.408       .  A
C49          H53   1.084       .  S
C50          C51   1.390       .  A
C50        C1260   1.474       .  S
C51          H54   1.085       .  S
C55          C56   1.403       .  A
C55          C60   1.386       .  A
C55        C1212   1.473       .  S
C56          C57   1.407       .  A
C56          H61   1.084       .  S
C57          C58   1.425       .  A
C57          C84   1.496       .  S
C58          C59   1.426       .  A
C58          H62   1.081       .  S
C59          C60   1.399       .  A
C59        C1231   1.516       .  S
C60          H63   1.079       .  S
C64          C65   1.391       .  A
C64          C69   1.408       .  A
C64        C1183   1.477       .  S
C65          C66   1.396       .  A
C65          H70   1.085       .  S
C66          C67   1.416       .  A
C66        C1196   1.488       .  S
C67          C68   1.414       .  A
C67          H71   1.082       .  S
C68          C69   1.411       .  A
C68          C95   1.489       .  S
C69          H72   1.084       .  S
O73         Zr85   2.438       .  S
O73          C75   1.287       .  A
O74        Zr111   2.485   1_456  S
O74          C75   1.299       .  A
O76         Zr88   2.445       .  S
O76          C78   1.288       .  A
O77        Zr112   2.467   1_556  S
O77          C78   1.295       .  A
O79         Zr88   2.453       .  S
O79          C81   1.290       .  A
O80        Zr111   2.468   1_556  S
O80          C81   1.295       .  A
O82         Zr85   2.448       .  S
O82          C84   1.287       .  A
O83        Zr112   2.482   1_456  S
O83          C84   1.299       .  A
Zr85         O86   2.439       .  S
Zr85         O87   2.436       .  S
Zr85         O91   2.377   1_455  S
Zr85         O92   2.368   1_455  S
Zr85        O115   2.379   1_556  S
Zr85        O117   2.379   1_556  S
O86         H129   0.990       .  S
O87         H128   0.990       .  S
O87         H132   0.990       .  S
Zr88         O89   2.437       .  S
Zr88         O90   2.434       .  S
Zr88         O92   2.375       .  S
Zr88         O91   2.375       .  S
Zr88        O116   2.368   1_556  S
Zr88        O118   2.377   1_556  S
O89         H130   0.989       .  S
O89         H133   0.991       .  S
O90         H123   0.991       .  S
O91        Zr111   2.398   1_556  S
O92        Zr112   2.401   1_556  S
O92         H119   0.966       .  S
O93        Zr105   2.435       .  S
O93          C95   1.285       .  A
O94        Zr112   2.486   1_455  S
O94          C95   1.298       .  A
O96        Zr108   2.445       .  S
O96          C98   1.288       .  A
O97        Zr111   2.482       .  S
O97          C98   1.298       .  A
O99        Zr108   2.443       .  S
O99         C101   1.287       .  A
O100       Zr112   2.479       .  S
O100        C101   1.297       .  A
O102       Zr105   2.441       .  S
O102        C104   1.287       .  A
O103       Zr111   2.467   1_455  S
O103        C104   1.295       .  A
Zr105       O106   2.437       .  S
Zr105       O107   2.434       .  S
Zr105       O113   2.373   1_455  S
Zr105       O114   2.373   1_455  S
Zr105       O117   2.368       .  S
Zr105       O115   2.378       .  S
O106        H126   0.990       .  S
O106        H131   0.990       .  S
O107        H127   0.990       .  S
Zr108       O109   2.435       .  S
Zr108       O110   2.437       .  S
Zr108       O114   2.377       .  S
Zr108       O113   2.375       .  S
Zr108       O118   2.371       .  S
Zr108       O116   2.370       .  S
O109        H125   0.990       .  S
O110        H124   0.991       .  S
O110        H134   0.990       .  S
Zr111       O114   2.395       .  S
Zr111       O116   2.398       .  S
Zr111       O117   2.398   1_655  S
Zr112       O113   2.398       .  S
Zr112       O115   2.393   1_655  S
Zr112       O118   2.400       .  S
O113        H121   0.966       .  S
O116        H120   0.966       .  S
O117        H122   0.965       .  S
C135        C136   1.389       .  A
C135        C140   1.409   1_565  A
C135       C1148   1.475       .  S
C136        C137   1.393       .  A
C136        H141   1.085       .  S
C137        C138   1.416       .  A
C137       C1167   1.483       .  S
C138        C139   1.415       .  A
C138        H142   1.083       .  S
C139        C140   1.410   1_565  A
C139        C209   1.490   1_565  S
C140        H143   1.084       .  S
C144        C145   1.409   1_565  A
C144        C149   1.392       .  A
C144       C1132   1.478       .  S
C145        C146   1.411   1_545  A
C145        H150   1.084       .  S
C146        C147   1.412       .  A
C146        C215   1.486   1_565  S
C147        C148   1.412       .  A
C147        H151   1.084       .  S
C148        C149   1.393       .  A
C148       C1116   1.479       .  S
C149        H152   1.085       .  S
C153        C154   1.410       .  A
C153        C158   1.394       .  A
C153       C1084   1.477       .  S
C154        C155   1.410       .  A
C154        H159   1.084       .  S
C155        C156   1.411       .  A
C155        C232   1.484       .  S
C156        C157   1.410       .  A
C156        H160   1.084       .  S
C157        C158   1.395       .  A
C157       C1100   1.478       .  S
C158        H161   1.085       .  S
C162        C163   1.410       .  A
C162        C167   1.388       .  A
C162       C1052   1.471       .  S
C163        C164   1.412       .  A
C163        H168   1.084       .  S
C164        C165   1.412       .  A
C164        C238   1.486       .  S
C165        C166   1.411       .  A
C165        H169   1.083       .  S
C166        C167   1.389       .  A
C166       C1071   1.475       .  S
C167        H170   1.086       .  S
C171        C172   1.387       .  A
C171        C176   1.409       .  A
C171       C1020   1.469       .  S
C172        C173   1.390       .  A
C172        H177   1.086       .  S
C173        C174   1.413       .  A
C173       C1036   1.477       .  S
C174        C175   1.415       .  A
C174        H178   1.084       .  S
C175        C176   1.410       .  A
C175        C235   1.487       .  S
C176        H179   1.084       .  S
C180        C181   1.413   1_565  A
C180        C185   1.391       .  A
C180        C991   1.481       .  S
C181        C182   1.415   1_545  A
C181        H186   1.084       .  S
C182        C183   1.413       .  A
C182        C212   1.491   1_565  S
C183        C184   1.413       .  A
C183        H187   1.084       .  S
C184        C185   1.391       .  A
C184       C1004   1.481       .  S
C185        H188   1.085       .  S
C189        C190   1.412   1_565  A
C189        C194   1.395       .  A
C189        C956   1.482       .  S
C190        C191   1.412   1_545  A
C190        H195   1.083       .  S
C191        C192   1.408       .  A
C191        C218   1.485   1_565  S
C192        C193   1.409       .  A
C192        H196   1.084       .  S
C193        C194   1.392       .  A
C193        C972   1.476       .  S
C194        H197   1.085       .  S
C198        C199   1.412       .  A
C198        C203   1.393       .  A
C198        C940   1.478       .  S
C199        C200   1.412       .  A
C199        H204   1.084       .  S
C200        C201   1.410       .  A
C200        C229   1.484       .  S
C201        C202   1.408       .  A
C201        H205   1.084       .  S
C202        C203   1.391       .  A
C202        C924   1.474       .  S
C203        H206   1.085       .  S
O207       Zr219   2.443       .  S
O207        C209   1.287       .  A
O208       Zr245   2.480       .  S
O208        C209   1.298       .  A
O210       Zr222   2.448       .  S
O210        C212   1.288       .  A
O211       Zr246   2.476   1_556  S
O211        C212   1.297       .  A
O213       Zr222   2.443       .  S
O213        C215   1.288       .  A
O214       Zr245   2.470   1_556  S
O214        C215   1.296       .  A
O216       Zr219   2.442       .  S
O216        C218   1.288       .  A
O217       Zr246   2.470       .  S
O217        C218   1.296       .  A
Zr219       O220   2.434   1_545  S
Zr219       O221   2.439       .  S
Zr219       O225   2.370       .  S
Zr219       O226   2.378       .  S
Zr219       O249   2.375       .  S
Zr219       O251   2.374       .  S
O220        H263   0.990       .  S
O221        H262   0.991       .  S
O221        H266   0.990       .  S
Zr222       O223   2.436   1_545  S
Zr222       O224   2.436       .  S
Zr222       O226   2.375   1_556  S
Zr222       O225   2.373   1_556  S
Zr222       O250   2.374       .  S
Zr222       O252   2.371       .  S
O223        H264   0.989       .  S
O223        H267   0.991       .  S
O224        H257   0.990       .  S
O225       Zr245   2.395       .  S
O226       Zr246   2.403       .  S
O226        H253   0.976   1_545  S
O227       Zr239   2.438       .  S
O227        C229   1.286       .  A
O228       Zr246   2.474       .  S
O228        C229   1.296       .  A
O230       Zr242   2.431       .  S
O230        C232   1.285       .  A
O231       Zr245   2.479   1_556  S
O231        C232   1.297       .  A
O233       Zr242   2.440       .  S
O233        C235   1.287       .  A
O234       Zr246   2.476   1_556  S
O234        C235   1.296       .  A
O236       Zr239   2.438       .  S
O236        C238   1.286       .  A
O237       Zr245   2.477       .  S
O237        C238   1.297       .  A
Zr239       O240   2.437       .  S
Zr239       O241   2.435       .  S
Zr239       O247   2.378       .  S
Zr239       O248   2.375       .  S
Zr239       O251   2.371       .  S
Zr239       O249   2.370       .  S
O240        H260   0.990       .  S
O240        H265   0.991       .  S
O241        H261   0.990       .  S
Zr242       O243   2.435       .  S
Zr242       O244   2.436       .  S
Zr242       O248   2.375   1_556  S
Zr242       O247   2.370   1_556  S
Zr242       O252   2.368       .  S
Zr242       O250   2.371       .  S
O243        H259   0.991       .  S
O244        H258   0.990       .  S
O244        H268   0.990       .  S
Zr245       O248   2.395       .  S
Zr245       O250   2.398   1_554  S
Zr245       O251   2.396       .  S
Zr246       O247   2.398       .  S
Zr246       O249   2.398       .  S
Zr246       O252   2.390   1_554  S
O247        H255   0.967       .  S
O250        H254   0.962       .  S
O251        H256   0.972       .  S
C269        C270   1.390       .  A
C269        C274   1.413   1_565  A
C269        C895   1.479       .  S
C270        C271   1.390       .  A
C270        H275   1.085       .  S
C271        C272   1.414       .  A
C271        C908   1.480       .  S
C272        C273   1.416       .  A
C272        H276   1.083       .  S
C273        C274   1.414   1_565  A
C273        C349   1.495   1_565  S
C274        H277   1.084       .  S
C278        C279   1.389       .  A
C278        C283   1.411   1_565  A
C278        C876   1.477       .  S
C279        C280   1.391       .  A
C279        H284   1.086       .  S
C280        C281   1.414       .  A
C280        C863   1.482       .  S
C281        C282   1.415       .  A
C281        H285   1.083       .  S
C282        C283   1.414   1_565  A
C282        C343   1.491   1_565  S
C283        H286   1.084       .  S
C287        C288   1.391       .  A
C287        C292   1.406       .  A
C287        C828   1.473       .  S
C288        C289   1.397       .  A
C288        H293   1.085       .  S
C289        C290   1.419       .  A
C289        C844   1.494       .  S
C290        C291   1.419       .  A
C290        H294   1.082       .  S
C291        C292   1.408       .  A
C291        C372   1.492       .  S
C292        H295   1.084       .  S
C296        C297   1.415       .  A
C296        C301   1.392       .  A
C296        C799   1.486       .  S
C297        C298   1.416       .  A
C297        H302   1.083       .  S
C298        C299   1.416       .  A
C298        C366   1.498       .  S
C299        C300   1.415       .  A
C299        H303   1.083       .  S
C300        C301   1.391       .  A
C300        C815   1.482       .  S
C301        H304   1.085       .  S
C305        C306   1.412       .  A
C305        C310   1.392       .  A
C305        C764   1.478       .  S
C306        C307   1.413       .  A
C306        H311   1.084       .  S
C307        C308   1.413       .  A
C307        C363   1.490       .  S
C308        C309   1.413       .  A
C308        H312   1.083       .  S
C309        C310   1.392       .  A
C309        C783   1.481       .  S
C310        H313   1.085       .  S
C314        C315   1.413   1_565  A
C314        C319   1.395       .  A
C314        C732   1.482       .  S
C315        C316   1.412   1_545  A
C315        H320   1.084       .  S
C316        C317   1.415       .  A
C316        C352   1.494   1_565  S
C317        C318   1.414       .  A
C317        H321   1.083       .  S
C318        C319   1.394       .  A
C318        C748   1.485       .  S
C319        H322   1.085       .  S
C323        C324   1.392       .  A
C323        C328   1.412   1_565  A
C323        C700   1.479       .  S
C324        C325   1.391       .  A
C324        H329   1.085       .  S
C325        C326   1.412       .  A
C325        C716   1.477       .  S
C326        C327   1.413       .  A
C326        H330   1.084       .  S
C327        C328   1.413   1_565  A
C327        C346   1.489   1_565  S
C328        H331   1.084       .  S
C332        C333   1.414       .  A
C332        C337   1.392       .  A
C332        C668   1.482       .  S
C333        C334   1.415       .  A
C333        H338   1.084       .  S
C334        C335   1.412       .  A
C334        C369   1.494       .  S
C335        C336   1.411       .  A
C335        H339   1.084       .  S
C336        C337   1.391       .  A
C336        C684   1.477       .  S
C337        H340   1.085       .  S
O341       Zr353   2.438       .  S
O341        C343   1.287       .  A
O342       Zr379   2.487       .  S
O342        C343   1.299       .  A
O344       Zr356   2.436       .  S
O344        C346   1.285       .  A
O345       Zr380   2.484   1_455  S
O345        C346   1.298       .  A
O347       Zr356   2.447       .  S
O347        C349   1.288       .  A
O348       Zr379   2.485   1_455  S
O348        C349   1.299       .  A
O350       Zr353   2.436       .  S
O350        C352   1.286       .  A
O351       Zr380   2.495       .  S
O351        C352   1.300       .  A
Zr353       O354   2.433   1_545  S
Zr353       O355   2.436       .  S
Zr353       O359   2.374       .  S
Zr353       O360   2.373       .  S
Zr353       O383   2.374       .  S
Zr353       O385   2.368       .  S
O354        H397   0.990       .  S
O355        H396   0.990       .  S
O355        H400   0.990       .  S
Zr356       O357   2.438   1_545  S
Zr356       O358   2.436       .  S
Zr356       O360   2.375   1_455  S
Zr356       O359   2.373   1_455  S
Zr356       O384   2.372       .  S
Zr356       O386   2.376       .  S
O357        H398   0.990   1_455  S
O357        H401   0.990       .  S
O358        H391   0.990       .  S
O359       Zr379   2.395       .  S
O360       Zr380   2.397       .  S
O360        H387   0.973       .  S
O361       Zr373   2.449       .  S
O361        C363   1.288       .  A
O362       Zr380   2.479       .  S
O362        C363   1.297       .  A
O364       Zr376   2.450       .  S
O364        C366   1.288       .  A
O365       Zr379   2.492   1_455  S
O365        C366   1.300       .  A
O367       Zr376   2.456       .  S
O367        C369   1.291       .  A
O368       Zr380   2.480   1_455  S
O368        C369   1.298       .  A
O370       Zr373   2.452       .  S
O370        C372   1.290       .  A
O371       Zr379   2.478       .  S
O371        C372   1.298       .  A
Zr373       O374   2.437       .  S
Zr373       O375   2.434       .  S
Zr373       O381   2.374       .  S
Zr373       O382   2.381       .  S
Zr373       O385   2.373       .  S
Zr373       O383   2.375       .  S
O374        H394   0.990       .  S
O374        H399   0.991       .  S
O375        H395   0.990       .  S
Zr376       O377   2.438       .  S
Zr376       O378   2.435       .  S
Zr376       O382   2.377   1_455  S
Zr376       O381   2.372   1_455  S
Zr376       O386   2.378       .  S
Zr376       O384   2.378       .  S
O377        H393   0.990       .  S
O378        H392   0.990       .  S
O378        H402   0.990       .  S
Zr379       O382   2.402       .  S
Zr379       O384   2.399   1_655  S
Zr379       O385   2.400       .  S
Zr380       O381   2.403       .  S
Zr380       O383   2.396       .  S
Zr380       O386   2.400   1_655  S
O381        H389   0.963       .  S
O384        H388   0.964       .  S
O385        H390   0.955       .  S
C403        C404   1.390       .  A
C403        C408   1.413       .  A
C403       C1279   1.479       .  S
C404        C405   1.389   1_655  A
C404        H423   1.088       .  S
C405        C406   1.414       .  A
C405       C1180   1.479       .  S
C406        C407   1.423   1_455  A
C406        C413   1.405       .  A
C407        C408   1.423       .  A
C407        C412   1.417       .  A
C408        C409   1.405       .  A
C409        C410   1.399       .  A
C409        H419   1.083       .  S
C410        C411   1.405       .  A
C410        H420   1.083       .  S
C411        C412   1.423       .  A
C411        C418   1.415       .  A
C412        C415   1.422   1_655  A
C413        C414   1.399       .  A
C413        H421   1.083       .  S
C414        C415   1.405       .  A
C414        H422   1.083       .  S
C415        C416   1.413       .  A
C416        C417   1.390   1_455  A
C416        C671   1.481       .  S
C417        C418   1.390       .  A
C417        H424   1.088       .  S
C418        C767   1.481       .  S
C425        C426   1.391       .  A
C425        C430   1.416       .  A
C425        C959   1.484       .  S
C426        C427   1.390       .  A
C426        H445   1.088       .  S
C427        C428   1.412       .  A
C427        C927   1.479       .  S
C428        C429   1.423       .  A
C428        C435   1.405       .  A
C429        C430   1.424       .  A
C429        C434   1.418       .  A
C430        C431   1.405       .  A
C431        C432   1.399       .  A
C431        H441   1.083   1_545  S
C432        C433   1.405       .  A
C432        H442   1.083   1_545  S
C433        C434   1.423       .  A
C433        C440   1.415       .  A
C434        C437   1.423       .  A
C435        C436   1.398       .  A
C435        H443   1.083       .  S
C436        C437   1.404       .  A
C436        H444   1.083       .  S
C437        C438   1.412       .  A
C438        C439   1.390       .  A
C438        C687   1.478       .  S
C439        C440   1.390       .  A
C439        H446   1.088       .  S
C440        C703   1.482       .  S
C447        C448   1.387       .  A
C447        C452   1.413       .  A
C447       C1199   1.476       .  S
C448        C449   1.384       .  A
C448        H467   1.088       .  S
C449        C450   1.406       .  A
C449       C1215   1.469   1_554  S
C450        C451   1.422       .  A
C450        C457   1.404   1_554  A
C451        C452   1.425       .  A
C451        C456   1.413       .  A
C452        C453   1.404       .  A
C453        C454   1.398       .  A
C453        H463   1.083       .  S
C454        C455   1.405       .  A
C454        H464   1.083       .  S
C455        C456   1.420       .  A
C455        C462   1.411       .  A
C456        C459   1.421   1_554  A
C457        C458   1.394       .  A
C457        H465   1.083       .  S
C458        C459   1.404       .  A
C458        H466   1.083       .  S
C459        C460   1.408       .  A
C460        C461   1.390   1_556  A
C460       C1023   1.474       .  S
C461        C462   1.392       .  A
C461        H468   1.087       .  S
C462        C943   1.478       .  S
C469        C470   1.386       .  A
C469        C474   1.411       .  A
C469       C1151   1.478       .  S
C470        C471   1.389       .  A
C470        H489   1.088       .  S
C471        C472   1.414       .  A
C471       C1068   1.479       .  S
C472        C473   1.423       .  A
C472        C479   1.405       .  A
C473        C474   1.424       .  A
C473        C478   1.417       .  A
C474        C475   1.403       .  A
C475        C476   1.395       .  A
C475        H485   1.083   1_545  S
C476        C477   1.404       .  A
C476        H486   1.083   1_545  S
C477        C478   1.424       .  A
C477        C484   1.412       .  A
C478        C481   1.424       .  A
C479        C480   1.398       .  A
C479        H487   1.083       .  S
C480        C481   1.405       .  A
C480        H488   1.083       .  S
C481        C482   1.415       .  A
C482        C483   1.391       .  A
C482        C780   1.485       .  S
C483        C484   1.388       .  A
C483        H490   1.087       .  S
C484        C735   1.483       .  S
C491        C492   1.390       .  A
C491        C496   1.413       .  A
C491       C1308   1.481   1_655  S
C492        C493   1.392       .  A
C492        H511   1.088       .  S
C493        C494   1.415       .  A
C493       C1343   1.481       .  S
C494        C495   1.423       .  A
C494        C501   1.405       .  A
C495        C496   1.424       .  A
C495        C500   1.419       .  A
C496        C497   1.404   1_655  A
C497        C498   1.398       .  A
C497        H507   1.083       .  S
C498        C499   1.406   1_455  A
C498        H508   1.083       .  S
C499        C500   1.422       .  A
C499        C506   1.414       .  A
C500        C503   1.425       .  A
C501        C502   1.402       .  A
C501        H509   1.083       .  S
C502        C503   1.406       .  A
C502        H510   1.083       .  S
C503        C504   1.418       .  A
C504        C505   1.391       .  A
C504        C751   1.485       .  S
C505        C506   1.391       .  A
C505        H512   1.088       .  S
C506        C719   1.482   1_655  S
C513        C514   1.390       .  A
C513        C518   1.413       .  A
C513       C1039   1.479       .  S
C514        C515   1.389       .  A
C514        H533   1.087       .  S
C515        C516   1.417       .  A
C515        C988   1.489       .  S
C516        C517   1.424       .  A
C516        C523   1.405       .  A
C517        C518   1.423       .  A
C517        C522   1.418       .  A
C518        C519   1.405       .  A
C519        C520   1.397       .  A
C519        H529   1.083       .  S
C520        C521   1.404       .  A
C520        H530   1.083       .  S
C521        C522   1.425       .  A
C521        C528   1.413       .  A
C522        C525   1.424       .  A
C523        C524   1.400       .  A
C523        H531   1.083   1_545  S
C524        C525   1.406       .  A
C524        H532   1.083   1_545  S
C525        C526   1.415       .  A
C526        C527   1.388       .  A
C526        C892   1.479       .  S
C527        C528   1.387       .  A
C527        H534   1.088       .  S
C528        C812   1.481       .  S
C535        C536   1.383       .  A
C535        C540   1.408       .  A
C535       C1263   1.478       .  S
C536        C537   1.393   1_655  A
C536        H555   1.087       .  S
C537        C538   1.419       .  A
C537       C1228   1.491       .  S
C538        C539   1.426   1_455  A
C538        C545   1.407       .  A
C539        C540   1.425       .  A
C539        C544   1.417       .  A
C540        C541   1.402       .  A
C541        C542   1.394       .  A
C541        H551   1.083       .  S
C542        C543   1.404       .  A
C542        H552   1.083       .  S
C543        C544   1.420       .  A
C543        C550   1.408       .  A
C544        C547   1.422   1_655  A
C545        C546   1.405       .  A
C545        H553   1.082       .  S
C546        C547   1.407       .  A
C546        H554   1.083       .  S
C547        C548   1.420       .  A
C548        C549   1.395   1_455  A
C548        C796   1.487       .  S
C549        C550   1.390       .  A
C549        H556   1.087       .  S
C550        C831   1.477       .  S
C557        C558   1.390       .  A
C557        C562   1.411       .  A
C557       C1324   1.478       .  S
C558        C559   1.391       .  A
C558        H577   1.087       .  S
C559        C560   1.415   1_554  A
C559       C1407   1.481   1_554  S
C560        C561   1.422   1_556  A
C560        C567   1.405       .  A
C561        C562   1.422       .  A
C561        C566   1.417       .  A
C562        C563   1.404       .  A
C563        C564   1.396       .  A
C563        H573   1.083       .  S
C564        C565   1.405       .  A
C564        H574   1.083       .  S
C565        C566   1.422       .  A
C565        C572   1.411       .  A
C566        C569   1.423   1_554  A
C567        C568   1.399       .  A
C567        H575   1.083       .  S
C568        C569   1.406       .  A
C568        H576   1.083       .  S
C569        C570   1.416       .  A
C570        C571   1.392   1_556  A
C570       C1007   1.481       .  S
C571        C572   1.388       .  A
C571        H578   1.087       .  S
C572        C975   1.480       .  S
C579        C580   1.391   1_556  A
C579        C584   1.414       .  A
C579       C1247   1.479       .  S
C580        C581   1.387       .  A
C580        H599   1.088       .  S
C581        C582   1.410       .  A
C581       C1292   1.479       .  S
C582        C583   1.424       .  A
C582        C589   1.403       .  A
C583        C584   1.422   1_554  A
C583        C588   1.416       .  A
C584        C585   1.406       .  A
C585        C586   1.398       .  A
C585        H595   1.083       .  S
C586        C587   1.404       .  A
C586        H596   1.083       .  S
C587        C588   1.424   1_556  A
C587        C594   1.415       .  A
C588        C591   1.420       .  A
C589        C590   1.395       .  A
C589        H597   1.083       .  S
C590        C591   1.404       .  A
C590        H598   1.083       .  S
C591        C592   1.409       .  A
C592        C593   1.389       .  A
C592       C1055   1.474       .  S
C593        C594   1.390   1_554  A
C593        H600   1.088       .  S
C594       C1087   1.483       .  S
C601        C602   1.387       .  A
C601        C606   1.414       .  A
C601       C1375   1.481       .  S
C602        C603   1.390   1_655  A
C602        H621   1.088       .  S
C603        C604   1.416       .  A
C603       C1420   1.483       .  S
C604        C605   1.425   1_455  A
C604        C611   1.405       .  A
C605        C606   1.425       .  A
C605        C610   1.420       .  A
C606        C607   1.404       .  A
C607        C608   1.399       .  A
C607        H617   1.083       .  S
C608        C609   1.405       .  A
C608        H618   1.083       .  S
C609        C610   1.425       .  A
C609        C616   1.417       .  A
C610        C613   1.424       .  A
C611        C612   1.398       .  A
C611        H619   1.083       .  S
C612        C613   1.404   1_455  A
C612        H620   1.083       .  S
C613        C614   1.413       .  A
C614        C615   1.388       .  A
C614        C911   1.483   1_655  S
C615        C616   1.392       .  A
C615        H622   1.088       .  S
C616        C860   1.487       .  S
C623        C624   1.393       .  A
C623        C628   1.416       .  A
C623       C1103   1.481       .  S
C624        C625   1.391       .  A
C624        H643   1.087       .  S
C625        C626   1.414       .  A
C625       C1135   1.483       .  S
C626        C627   1.423       .  A
C626        C633   1.404       .  A
C627        C628   1.421       .  A
C627        C632   1.419       .  A
C628        C629   1.406       .  A
C629        C630   1.401       .  A
C629        H639   1.083       .  S
C630        C631   1.405       .  A
C630        H640   1.083       .  S
C631        C632   1.427       .  A
C631        C638   1.420       .  A
C632        C635   1.423       .  A
C633        C634   1.398       .  A
C633        H641   1.083   1_545  S
C634        C635   1.405       .  A
C634        H642   1.083   1_545  S
C635        C636   1.413       .  A
C636        C637   1.387       .  A
C636        C879   1.479       .  S
C637        C638   1.388       .  A
C637        H644   1.088       .  S
C638        C847   1.487       .  S
C645        C646   1.393       .  A
C645        C650   1.414       .  A
C645       C1391   1.482   1_554  S
C646        C647   1.394       .  A
C646        H665   1.087       .  S
C647        C648   1.414       .  A
C647       C1356   1.481       .  S
C648        C649   1.418       .  A
C648        C655   1.405       .  A
C649        C650   1.420       .  A
C649        C654   1.416       .  A
C650        C651   1.404   1_554  A
C651        C652   1.399       .  A
C651        H661   1.083       .  S
C652        C653   1.405   1_556  A
C652        H662   1.083       .  S
C653        C654   1.423       .  A
C653        C660   1.410       .  A
C654        C657   1.425       .  A
C655        C656   1.401       .  A
C655        H663   1.083       .  S
C656        C657   1.406       .  A
C656        H664   1.083       .  S
C657        C658   1.416       .  A
C658        C659   1.389       .  A
C658       C1164   1.482       .  S
C659        C660   1.387       .  A
C659        H666   1.088       .  S
C660       C1119   1.475   1_554  S
C667        C668   1.402       .  A
C667        C672   1.406       .  A
C667        H674   1.084       .  S
C668        C669   1.414       .  A
C669        C670   1.403       .  A
C669        C676   1.507       .  S
C670        C671   1.404       .  A
C670        H675   1.085       .  S
C671        C672   1.414       .  A
C672        C673   1.506       .  S
C673        H677   1.111       .  S
C673        H678   1.110       .  S
C673        H679   1.110       .  S
C676        H680   1.110       .  S
C676        H681   1.108       .  S
C676        H682   1.111       .  S
C683        C684   1.402       .  A
C683        C688   1.404       .  A
C683        H690   1.084       .  S
C684        C685   1.412       .  A
C685        C686   1.403       .  A
C685        C692   1.506       .  S
C686        C687   1.404       .  A
C686        H691   1.085       .  S
C687        C688   1.412       .  A
C688        C689   1.505       .  S
C689        H693   1.111       .  S
C689        H694   1.110       .  S
C689        H695   1.110       .  S
C692        H696   1.108       .  S
C692        H697   1.110       .  S
C692        H698   1.111       .  S
C699        C700   1.401       .  A
C699        C704   1.401   1_565  A
C699        H706   1.084       .  S
C700        C701   1.411       .  A
C701        C702   1.407   1_565  A
C701        C708   1.506       .  S
C702        C703   1.407       .  A
C702        H707   1.084       .  S
C703        C704   1.416       .  A
C704        C705   1.508       .  S
C705        H709   1.111       .  S
C705        H710   1.109       .  S
C705        H711   1.110       .  S
C708        H712   1.110       .  S
C708        H713   1.110   1_565  S
C708        H714   1.111       .  S
C715        C716   1.400       .  A
C715        C720   1.402       .  A
C715        H722   1.084       .  S
C716        C717   1.410       .  A
C717        C718   1.405       .  A
C717        C724   1.505       .  S
C718        C719   1.407       .  A
C718        H723   1.084       .  S
C719        C720   1.416       .  A
C720        C721   1.508       .  S
C721        H725   1.111       .  S
C721        H726   1.110   1_455  S
C721        H727   1.109       .  S
C724        H728   1.110       .  S
C724        H729   1.110       .  S
C724        H730   1.111       .  S
C731        C732   1.402   1_545  A
C731        C736   1.402       .  A
C731        H738   1.084   1_545  S
C732        C733   1.411       .  A
C733        C734   1.406   1_565  A
C733        C740   1.505       .  S
C734        C735   1.408       .  A
C734        H739   1.084       .  S
C735        C736   1.415       .  A
C736        C737   1.508       .  S
C737        H741   1.111       .  S
C737        H742   1.109       .  S
C737        H743   1.109       .  S
C740        H744   1.109   1_565  S
C740        H745   1.110       .  S
C740        H746   1.111       .  S
C747        C748   1.403       .  A
C747        C752   1.409       .  A
C747        H754   1.084       .  S
C748        C749   1.414       .  A
C749        C750   1.404       .  A
C749        C756   1.507       .  S
C750        C751   1.403       .  A
C750        H755   1.085       .  S
C751        C752   1.417       .  A
C752        C753   1.506       .  S
C753        H757   1.111       .  S
C753        H758   1.110       .  S
C753        H759   1.110       .  S
C756        H760   1.110       .  S
C756        H761   1.109       .  S
C756        H762   1.111       .  S
C763        C764   1.401       .  A
C763        C768   1.403       .  A
C763        H770   1.084       .  S
C764        C765   1.413       .  A
C765        C766   1.403       .  A
C765        C772   1.508       .  S
C766        C767   1.404       .  A
C766        H771   1.085       .  S
C767        C768   1.417       .  A
C768        C769   1.505       .  S
C769        H773   1.110       .  S
C769        H774   1.110       .  S
C769        H775   1.111       .  S
C772        H776   1.109       .  S
C772        H777   1.111       .  S
C772        H778   1.111       .  S
C779        C780   1.409       .  A
C779        C784   1.406       .  A
C779        H786   1.084       .  S
C780        C781   1.416       .  A
C781        C782   1.402       .  A
C781        C788   1.508       .  S
C782        C783   1.403       .  A
C782        H787   1.084       .  S
C783        C784   1.411       .  A
C784        C785   1.506       .  S
C785        H789   1.111       .  S
C785        H790   1.110       .  S
C785        H791   1.109       .  S
C788        H792   1.109       .  S
C788        H793   1.109       .  S
C788        H794   1.111       .  S
C795        C796   1.404       .  A
C795        C800   1.403       .  A
C795        H802   1.085       .  S
C796        C797   1.418       .  A
C797        C798   1.409       .  A
C797        C804   1.506       .  S
C798        C799   1.403       .  A
C798        H803   1.084       .  S
C799        C800   1.417       .  A
C800        C801   1.510       .  S
C801        H805   1.110       .  S
C801        H806   1.108       .  S
C801        H807   1.111       .  S
C804        H808   1.110       .  S
C804        H809   1.109       .  S
C804        H810   1.111       .  S
C811        C812   1.407       .  A
C811        C816   1.406       .  A
C811        H818   1.084       .  S
C812        C813   1.414       .  A
C813        C814   1.403       .  A
C813        C820   1.508       .  S
C814        C815   1.404       .  A
C814        H819   1.084       .  S
C815        C816   1.411       .  A
C816        C817   1.505       .  S
C817        H821   1.111       .  S
C817        H822   1.110       .  S
C817        H823   1.110       .  S
C820        H824   1.110       .  S
C820        H825   1.110       .  S
C820        H826   1.111       .  S
C827        C828   1.402       .  A
C827        C832   1.401       .  A
C827        H834   1.084       .  S
C828        C829   1.410       .  A
C829        C830   1.403       .  A
C829        C836   1.506       .  S
C830        C831   1.405       .  A
C830        H835   1.085       .  S
C831        C832   1.409       .  A
C832        C833   1.505       .  S
C833        H837   1.111       .  S
C833        H838   1.110       .  S
C833        H839   1.110       .  S
C836        H840   1.110       .  S
C836        H841   1.110       .  S
C836        H842   1.111       .  S
C843        C844   1.407       .  A
C843        C848   1.403       .  A
C843        H850   1.084       .  S
C844        C845   1.414       .  A
C845        C846   1.412       .  A
C845        C852   1.506       .  S
C846        C847   1.411       .  A
C846        H851   1.084       .  S
C847        C848   1.412       .  A
C848        C849   1.508       .  S
C849        H853   1.111       .  S
C849        H854   1.110       .  S
C849        H855   1.109       .  S
C852        H856   1.108       .  S
C852        H857   1.110       .  S
C852        H858   1.111       .  S
C859        C860   1.410       .  A
C859        C864   1.407       .  A
C859        H866   1.084       .  S
C860        C861   1.415       .  A
C861        C862   1.402       .  A
C861        C868   1.508       .  S
C862        C863   1.403       .  A
C862        H867   1.084       .  S
C863        C864   1.410       .  A
C864        C865   1.506       .  S
C865        H869   1.111       .  S
C865        H870   1.110       .  S
C865        H871   1.110       .  S
C868        H872   1.107       .  S
C868        H873   1.109       .  S
C868        H874   1.111       .  S
C875        C876   1.401   1_545  A
C875        C880   1.400       .  A
C875        H882   1.085       .  S
C876        C877   1.410       .  A
C877        C878   1.405   1_565  A
C877        C884   1.505       .  S
C878        C879   1.407       .  A
C878        H883   1.084       .  S
C879        C880   1.416       .  A
C880        C881   1.508       .  S
C881        H885   1.110       .  S
C881        H886   1.106       .  S
C881        H887   1.111       .  S
C884        H888   1.110       .  S
C884        H889   1.110   1_565  S
C884        H890   1.111       .  S
C891        C892   1.403       .  A
C891        C896   1.404   1_545  A
C891        H898   1.084       .  S
C892        C893   1.415       .  A
C893        C894   1.403   1_545  A
C893        C900   1.507       .  S
C894        C895   1.400       .  A
C894        H899   1.084       .  S
C895        C896   1.416       .  A
C896        C897   1.508       .  S
C897        H901   1.111       .  S
C897        H902   1.109       .  S
C897        H903   1.110   1_565  S
C900        H904   1.110   1_545  S
C900        H905   1.109       .  S
C900        H906   1.111       .  S
C907        C908   1.401       .  A
C907        C912   1.400       .  A
C907        H914   1.085       .  S
C908        C909   1.411       .  A
C909        C910   1.408       .  A
C909        C916   1.505       .  S
C910        C911   1.408       .  A
C910        H915   1.084       .  S
C911        C912   1.415       .  A
C912        C913   1.507       .  S
C913        H917   1.111       .  S
C913        H918   1.110       .  S
C913        H919   1.107   1_455  S
C916        H920   1.110       .  S
C916        H921   1.110       .  S
C916        H922   1.111       .  S
C923        C924   1.402       .  A
C923        C928   1.405       .  A
C923        H930   1.084       .  S
C924        C925   1.414       .  A
C925        C926   1.401       .  A
C925        C932   1.509       .  S
C926        C927   1.403       .  A
C926        H931   1.085       .  S
C927        C928   1.412       .  A
C928        C929   1.505       .  S
C929        H933   1.111       .  S
C929        H934   1.110       .  S
C929        H935   1.110       .  S
C932        H936   1.107       .  S
C932        H937   1.110       .  S
C932        H938   1.111       .  S
C939        C940   1.402       .  A
C939        C944   1.402       .  A
C939        H946   1.084       .  S
C940        C941   1.418       .  A
C941        C942   1.399       .  A
C941        C948   1.509       .  S
C942        C943   1.402       .  A
C942        H947   1.085       .  S
C943        C944   1.413       .  A
C944        C945   1.504       .  S
C945        H949   1.110       .  S
C945        H950   1.110       .  S
C945        H951   1.110       .  S
C948        H952   1.110       .  S
C948        H953   1.105       .  S
C948        H954   1.111       .  S
C955        C956   1.403       .  A
C955        C960   1.401   1_565  A
C955        H962   1.084       .  S
C956        C957   1.411       .  A
C957        C958   1.407   1_565  A
C957        C964   1.506       .  S
C958        C959   1.409       .  A
C958        H963   1.084       .  S
C959        C960   1.415       .  A
C960        C961   1.508       .  S
C961        H965   1.111       .  S
C961        H966   1.110       .  S
C961        H967   1.109   1_545  S
C964        H968   1.109   1_565  S
C964        H969   1.110       .  S
C964        H970   1.111       .  S
C971        C972   1.400       .  A
C971        C976   1.400       .  A
C971        H978   1.084       .  S
C972        C973   1.414       .  A
C973        C974   1.404       .  A
C973        C980   1.508       .  S
C974        C975   1.403       .  A
C974        H979   1.084       .  S
C975        C976   1.414       .  A
C976        C977   1.505       .  S
C977        H981   1.110       .  S
C977        H982   1.110       .  S
C977        H983   1.110       .  S
C980        H984   1.110       .  S
C980        H985   1.109       .  S
C980        H986   1.111       .  S
C987        C988   1.411       .  A
C987        C992   1.408   1_545  A
C987        H994   1.084       .  S
C988        C989   1.420       .  A
C989        C990   1.402   1_545  A
C989        C996   1.508       .  S
C990        C991   1.400       .  A
C990        H995   1.085       .  S
C991        C992   1.409       .  A
C992        C993   1.506       .  S
C993        H997   1.111       .  S
C993        H998   1.110       .  S
C993        H999   1.110   1_565  S
C996       H1000   1.102       .  S
C996       H1001   1.111       .  S
C996       H1002   1.111   1_545  S
C1003      C1004   1.401       .  A
C1003      C1008   1.405       .  A
C1003      H1010   1.084       .  S
C1004      C1005   1.416       .  A
C1005      C1006   1.403       .  A
C1005      C1012   1.509       .  S
C1006      C1007   1.402       .  A
C1006      H1011   1.085       .  S
C1007      C1008   1.416       .  A
C1008      C1009   1.507       .  S
C1009      H1013   1.111       .  S
C1009      H1014   1.110       .  S
C1009      H1015   1.109       .  S
C1012      H1016   1.108       .  S
C1012      H1017   1.110       .  S
C1012      H1018   1.111       .  S
C1019      C1020   1.398       .  A
C1019      C1024   1.397       .  A
C1019      H1026   1.085       .  S
C1020      C1021   1.414       .  A
C1021      C1022   1.402       .  A
C1021      C1028   1.507       .  S
C1022      C1023   1.402       .  A
C1022      H1027   1.085       .  S
C1023      C1024   1.416       .  A
C1024      C1025   1.507       .  S
C1025      H1029   1.110       .  S
C1025      H1030   1.106   1_556  S
C1025      H1031   1.110   1_556  S
C1028      H1032   1.110       .  S
C1028      H1033   1.108       .  S
C1028      H1034   1.110       .  S
C1035      C1036   1.402       .  A
C1035      C1040   1.406       .  A
C1035      H1042   1.084       .  S
C1036      C1037   1.418       .  A
C1037      C1038   1.398       .  A
C1037      C1044   1.510       .  S
C1038      C1039   1.401       .  A
C1038      H1043   1.085       .  S
C1039      C1040   1.415       .  A
C1040      C1041   1.506       .  S
C1041      H1045   1.111       .  S
C1041      H1046   1.110       .  S
C1041      H1047   1.109       .  S
C1044      H1048   1.110       .  S
C1044      H1049   1.107       .  S
C1044      H1050   1.111       .  S
C1051      C1052   1.399       .  A
C1051      C1056   1.398       .  A
C1051      H1058   1.084       .  S
C1052      C1053   1.410       .  A
C1053      C1054   1.404       .  A
C1053      C1060   1.505       .  S
C1054      C1055   1.406       .  A
C1054      H1059   1.084       .  S
C1055      C1056   1.415       .  A
C1056      C1057   1.509       .  S
C1057      H1061   1.111       .  S
C1057      H1062   1.109       .  S
C1057      H1063   1.110       .  S
C1060      H1064   1.111       .  S
C1060      H1065   1.110       .  S
C1060      H1066   1.111       .  S
C1067      C1068   1.408       .  A
C1067      C1072   1.405       .  A
C1067      H1074   1.084       .  S
C1068      C1069   1.417       .  A
C1069      C1070   1.399       .  A
C1069      C1076   1.508       .  S
C1070      C1071   1.401       .  A
C1070      H1075   1.085       .  S
C1071      C1072   1.409       .  A
C1072      C1073   1.506       .  S
C1073      H1077   1.111       .  S
C1073      H1078   1.110       .  S
C1073      H1079   1.110       .  S
C1076      H1080   1.111       .  S
C1076      H1081   1.105       .  S
C1076      H1082   1.110       .  S
C1083      C1084   1.401       .  A
C1083      C1088   1.404       .  A
C1083      H1090   1.084       .  S
C1084      C1085   1.415       .  A
C1085      C1086   1.403       .  A
C1085      C1092   1.508       .  S
C1086      C1087   1.404       .  A
C1086      H1091   1.085       .  S
C1087      C1088   1.415       .  A
C1088      C1089   1.507       .  S
C1089      H1093   1.111       .  S
C1089      H1094   1.110       .  S
C1089      H1095   1.109       .  S
C1092      H1096   1.110       .  S
C1092      H1097   1.107       .  S
C1092      H1098   1.111       .  S
C1099      C1100   1.403       .  A
C1099      C1104   1.407       .  A
C1099      H1106   1.084       .  S
C1100      C1101   1.415       .  A
C1101      C1102   1.399       .  A
C1101      C1108   1.509       .  S
C1102      C1103   1.402       .  A
C1102      H1107   1.085       .  S
C1103      C1104   1.415       .  A
C1104      C1105   1.506       .  S
C1105      H1109   1.111       .  S
C1105      H1110   1.109       .  S
C1105      H1111   1.110       .  S
C1108      H1112   1.106       .  S
C1108      H1113   1.110       .  S
C1108      H1114   1.111       .  S
C1115      C1116   1.402       .  A
C1115      C1120   1.405       .  A
C1115      H1122   1.084       .  S
C1116      C1117   1.415       .  A
C1117      C1118   1.401       .  A
C1117      C1124   1.506       .  S
C1118      C1119   1.400       .  A
C1118      H1123   1.085       .  S
C1119      C1120   1.413       .  A
C1120      C1121   1.506       .  S
C1121      H1125   1.111       .  S
C1121      H1126   1.110       .  S
C1121      H1127   1.110       .  S
C1124      H1128   1.110       .  S
C1124      H1129   1.106       .  S
C1124      H1130   1.111       .  S
C1131      C1132   1.402       .  A
C1131      C1136   1.404       .  A
C1131      H1138   1.084       .  S
C1132      C1133   1.412   1_565  A
C1133      C1134   1.403       .  A
C1133      C1140   1.506       .  S
C1134      C1135   1.404       .  A
C1134      H1139   1.085       .  S
C1135      C1136   1.414   1_545  A
C1136      C1137   1.504       .  S
C1137      H1141   1.110   1_565  S
C1137      H1142   1.110       .  S
C1137      H1143   1.110   1_565  S
C1140      H1144   1.106   1_545  S
C1140      H1145   1.110       .  S
C1140      H1146   1.111       .  S
C1147      C1148   1.401   1_545  A
C1147      C1152   1.402       .  A
C1147      H1154   1.084       .  S
C1148      C1149   1.410       .  A
C1149      C1150   1.404   1_565  A
C1149      C1156   1.506       .  S
C1150      C1151   1.406       .  A
C1150      H1155   1.084       .  S
C1151      C1152   1.414       .  A
C1152      C1153   1.508       .  S
C1153      H1157   1.111       .  S
C1153      H1158   1.110       .  S
C1153      H1159   1.110       .  S
C1156      H1160   1.111       .  S
C1156      H1161   1.110   1_565  S
C1156      H1162   1.111       .  S
C1163      C1164   1.410       .  A
C1163      C1168   1.408       .  A
C1163      H1170   1.084       .  S
C1164      C1165   1.415       .  A
C1165      C1166   1.400       .  A
C1165      C1172   1.507       .  S
C1166      C1167   1.403       .  A
C1166      H1171   1.085       .  S
C1167      C1168   1.411       .  A
C1168      C1169   1.506       .  S
C1169      H1173   1.111       .  S
C1169      H1174   1.109       .  S
C1169      H1175   1.110       .  S
C1172      H1176   1.110       .  S
C1172      H1177   1.105       .  S
C1172      H1178   1.111       .  S
C1179      C1180   1.404       .  A
C1179      C1184   1.402       .  A
C1179      H1186   1.085       .  S
C1180      C1181   1.413       .  A
C1181      C1182   1.407       .  A
C1181      C1188   1.505       .  S
C1182      C1183   1.402       .  A
C1182      H1187   1.084       .  S
C1183      C1184   1.411       .  A
C1184      C1185   1.507       .  S
C1185      H1189   1.111       .  S
C1185      H1190   1.110       .  S
C1185      H1191   1.111       .  S
C1188      H1192   1.110       .  S
C1188      H1193   1.110       .  S
C1188      H1194   1.111       .  S
C1195      C1196   1.406       .  A
C1195      C1200   1.399       .  A
C1195      H1202   1.084       .  S
C1196      C1197   1.414       .  A
C1197      C1198   1.408       .  A
C1197      C1204   1.506       .  S
C1198      C1199   1.407       .  A
C1198      H1203   1.084       .  S
C1199      C1200   1.410       .  A
C1200      C1201   1.509       .  S
C1201      H1205   1.111       .  S
C1201      H1206   1.110       .  S
C1201      H1207   1.110       .  S
C1204      H1208   1.110       .  S
C1204      H1209   1.108       .  S
C1204      H1210   1.111       .  S
C1211      C1212   1.406       .  A
C1211      C1216   1.397       .  A
C1211      H1218   1.084       .  S
C1212      C1213   1.405       .  A
C1213      C1214   1.403       .  A
C1213      C1220   1.504       .  S
C1214      C1215   1.408       .  A
C1214      H1219   1.084   1_556  S
C1215      C1216   1.406       .  A
C1216      C1217   1.508       .  S
C1217      H1221   1.111       .  S
C1217      H1222   1.110       .  S
C1217      H1223   1.110       .  S
C1220      H1224   1.110       .  S
C1220      H1225   1.110       .  S
C1220      H1226   1.111   1_556  S
C1227      C1228   1.397       .  A
C1227      C1232   1.406       .  A
C1227      H1234   1.083       .  S
C1228      C1229   1.422       .  A
C1229      C1230   1.404       .  A
C1229      C1236   1.506   1_455  S
C1230      C1231   1.404       .  A
C1230      H1235   1.081       .  S
C1231      C1232   1.432       .  A
C1232      C1233   1.508       .  S
C1233      H1237   1.110       .  S
C1233      H1238   1.111       .  S
C1233      H1239   1.109       .  S
C1236      H1240   1.111       .  S
C1236      H1241   1.111       .  S
C1236      H1242   1.110   1_655  S
C1243      C1244   1.405       .  A
C1243      C1248   1.398       .  A
C1243      H1250   1.084       .  S
C1244      C1245   1.412       .  A
C1245      C1246   1.406       .  A
C1245      C1252   1.506       .  S
C1246      C1247   1.409       .  A
C1246      H1251   1.084       .  S
C1247      C1248   1.412       .  A
C1248      C1249   1.509       .  S
C1249      H1253   1.111       .  S
C1249      H1254   1.109       .  S
C1249      H1255   1.109       .  S
C1252      H1256   1.110       .  S
C1252      H1257   1.108       .  S
C1252      H1258   1.111       .  S
C1259      C1260   1.400       .  A
C1259      C1264   1.402       .  A
C1259      H1266   1.084       .  S
C1260      C1261   1.412       .  A
C1261      C1262   1.404       .  A
C1261      C1268   1.506       .  S
C1262      C1263   1.404       .  A
C1262      H1267   1.084       .  S
C1263      C1264   1.413       .  A
C1264      C1265   1.506       .  S
C1265      H1269   1.111       .  S
C1265      H1270   1.110       .  S
C1265      H1271   1.110       .  S
C1268      H1272   1.110       .  S
C1268      H1273   1.110       .  S
C1268      H1274   1.111       .  S
C1275      C1276   1.402       .  A
C1275      C1280   1.405       .  A
C1275      H1282   1.084       .  S
C1276      C1277   1.413       .  A
C1277      C1278   1.403       .  A
C1277      C1284   1.508       .  S
C1278      C1279   1.404       .  A
C1278      H1283   1.085       .  S
C1279      C1280   1.413       .  A
C1280      C1281   1.505       .  S
C1281      H1285   1.111       .  S
C1281      H1286   1.110       .  S
C1281      H1287   1.110       .  S
C1284      H1288   1.110       .  S
C1284      H1289   1.109       .  S
C1284      H1290   1.111       .  S
C1291      C1292   1.406       .  A
C1291      C1296   1.404       .  A
C1291      H1298   1.084       .  S
C1292      C1293   1.415       .  A
C1293      C1294   1.401       .  A
C1293      C1300   1.508       .  S
C1294      C1295   1.402       .  A
C1294      H1299   1.084       .  S
C1295      C1296   1.410       .  A
C1296      C1297   1.506       .  S
C1297      H1301   1.111       .  S
C1297      H1302   1.109       .  S
C1297      H1303   1.110       .  S
C1300      H1304   1.109       .  S
C1300      H1305   1.109       .  S
C1300      H1306   1.111       .  S
C1307      C1308   1.407       .  A
C1307      C1312   1.401       .  A
C1307      H1314   1.085   1_455  S
C1308      C1309   1.410       .  A
C1309      C1310   1.407       .  A
C1309      C1316   1.504       .  S
C1310      C1311   1.405       .  A
C1310      H1315   1.084       .  S
C1311      C1312   1.408       .  A
C1312      C1313   1.507       .  S
C1313      H1317   1.111       .  S
C1313      H1318   1.110       .  S
C1313      H1319   1.110       .  S
C1316      H1320   1.110       .  S
C1316      H1321   1.110       .  S
C1316      H1322   1.111       .  S
C1323      C1324   1.403       .  A
C1323      C1328   1.401       .  A
C1323      H1330   1.085       .  S
C1324      C1325   1.413       .  A
C1325      C1326   1.405       .  A
C1325      C1332   1.506       .  S
C1326      C1327   1.402       .  A
C1326      H1331   1.084       .  S
C1327      C1328   1.413       .  A
C1328      C1329   1.508       .  S
C1329      H1333   1.111       .  S
C1329      H1334   1.109       .  S
C1329      H1335   1.111       .  S
C1332      H1336   1.110       .  S
C1332      H1337   1.110       .  S
C1332      H1338   1.111       .  S
C1339      C1340   1.404       .  A
C1339      C1344   1.408       .  A
C1339      H1346   1.084       .  S
C1340      C1341   1.411       .  A
C1341      C1342   1.403       .  A
C1341      C1348   1.507       .  S
C1342      C1343   1.406       .  A
C1342      H1347   1.085       .  S
C1343      C1344   1.412       .  A
C1344      C1345   1.504       .  S
C1345      H1349   1.111       .  S
C1345      H1350   1.110       .  S
C1345      H1351   1.110       .  S
C1348      H1352   1.109       .  S
C1348      H1353   1.111       .  S
C1348      H1354   1.111       .  S
C1355      C1356   1.406       .  A
C1355      C1360   1.401       .  A
C1355      H1362   1.085       .  S
C1356      C1357   1.412       .  A
C1357      C1358   1.406       .  A
C1357      C1364   1.505       .  S
C1358      C1359   1.403       .  A
C1358      H1363   1.084       .  S
C1359      C1360   1.411       .  A
C1360      C1361   1.507       .  S
C1361      H1365   1.111       .  S
C1361      H1366   1.110       .  S
C1361      H1367   1.109       .  S
C1364      H1368   1.109       .  S
C1364      H1369   1.110       .  S
C1364      H1370   1.111       .  S
C1371      C1372   1.401       .  A
C1371      C1376   1.404       .  A
C1371      H1378   1.084       .  S
C1372      C1373   1.413       .  A
C1373      C1374   1.405       .  A
C1373      C1380   1.506       .  S
C1374      C1375   1.405       .  A
C1374      H1379   1.084       .  S
C1375      C1376   1.414       .  A
C1376      C1377   1.505       .  S
C1377      H1381   1.110       .  S
C1377      H1382   1.110       .  S
C1377      H1383   1.110       .  S
C1380      H1384   1.110       .  S
C1380      H1385   1.109       .  S
C1380      H1386   1.111       .  S
C1387      C1388   1.405       .  A
C1387      C1392   1.409       .  A
C1387      H1394   1.084       .  S
C1388      C1389   1.410       .  A
C1389      C1390   1.399       .  A
C1389      C1396   1.507       .  S
C1390      C1391   1.404       .  A
C1390      H1395   1.085       .  S
C1391      C1392   1.413       .  A
C1392      C1393   1.505       .  S
C1393      H1397   1.111       .  S
C1393      H1398   1.110       .  S
C1393      H1399   1.110       .  S
C1396      H1400   1.109       .  S
C1396      H1401   1.110       .  S
C1396      H1402   1.111       .  S
C1403      C1404   1.400       .  A
C1403      C1408   1.403       .  A
C1403      H1410   1.084       .  S
C1404      C1405   1.415       .  A
C1405      C1406   1.403       .  A
C1405      C1412   1.508       .  S
C1406      C1407   1.403       .  A
C1406      H1411   1.085       .  S
C1407      C1408   1.416       .  A
C1408      C1409   1.505       .  S
C1409      H1413   1.110       .  S
C1409      H1414   1.110       .  S
C1409      H1415   1.111       .  S
C1412      H1416   1.110       .  S
C1412      H1417   1.109       .  S
C1412      H1418   1.111       .  S
C1419      C1420   1.410       .  A
C1419      C1424   1.408       .  A
C1419      H1426   1.084       .  S
C1420      C1421   1.414       .  A
C1421      C1422   1.399       .  A
C1421      C1428   1.507       .  S
C1422      C1423   1.403       .  A
C1422      H1427   1.085       .  S
C1423      C1424   1.411       .  A
C1424      C1425   1.506       .  S
C1425      H1429   1.111       .  S
C1425      H1430   1.109       .  S
C1425      H1431   1.110       .  S
C1428      H1432   1.110       .  S
C1428      H1433   1.105       .  S
C1428      H1434   1.111       .  S
