geometry optimzed in LAMMPS
_audit_creation_date              2020-12-01 
_audit_creation_method            'lammps2cif' 
_symmetry_space_group_name_H-M    'P1' 
_symmetry_Int_Tables_number       1 
_symmetry_cell_setting            triclinic 
loop_ 
_symmetry_equiv_pos_as_xyz 
  x,y,z 
_cell_length_a                    48.40715106 
_cell_length_b                    48.39733512562607 
_cell_length_c                    65.2427084484042 
_cell_angle_alpha                 90.01383659860335 
_cell_angle_beta                  89.98794170616243 
_cell_angle_gamma                 89.98141664117496 
loop_ 
_atom_site_label 
_atom_site_type_symbol 
_atom_site_fract_x 
_atom_site_fract_y 
_atom_site_fract_z 
_atom_site_charge 
O1          O  0.87332196  0.92812129  0.63867550    -0.72000
O2          O  0.83537211  0.85931123  0.63174079    -0.72200
O3          O  0.83864360  0.89720780  0.66183750    -0.72100
O4          O  0.86923498  0.89038663  0.60864490    -0.72100
O5          O  0.90462907  0.86854041  0.62107206    -0.72000
O6          O  0.87370140  0.87532857  0.67473512    -0.72100
O7          O  0.87090265  0.83802113  0.64447242    -0.72000
O8          O  0.90818790  0.90588240  0.65152325    -0.72200
V9          V  0.85481461  0.89339012  0.63551068     1.35200
V10         V  0.88867359  0.87244139  0.64771992     1.35200
C11         C  0.89754940  0.92854722  0.64608197     0.77200
C12         C  0.84695822  0.83684598  0.63688394     0.77300
C13         C  0.85052991  0.88702545  0.67734084     0.77200
C14         C  0.89191977  0.87813813  0.60564827     0.77100
O15         O  0.08173780  0.13503643  0.63948760    -0.72000
O16         O  0.14995707  0.17380802  0.63221356    -0.72200
O17         O  0.11884630  0.13991471  0.60907740    -0.72100
O18         O  0.11262500  0.16960548  0.66260014    -0.72100
O19         O  0.13514685  0.13462546  0.67499973    -0.72000
O20         O  0.14127236  0.10455714  0.62097939    -0.72100
O21         O  0.17189515  0.13831891  0.64439330    -0.72000
O22         O  0.10449970  0.10011161  0.65172580    -0.72200
V23         V  0.11618650  0.15390864  0.63611136     1.35200
V24         V  0.13770288  0.12007878  0.64781020     1.35200
C25         C  0.08164250  0.11065652  0.64661414     0.77200
C26         C  0.17264526  0.16244760  0.63707103     0.77300
C27         C  0.13121035  0.11736370  0.60575903     0.77200
C28         C  0.12318959  0.15760911  0.67791048     0.77100
O29         O  0.08140466  0.30464752  0.88809448    -0.72000
O30         O  0.15051276  0.26744212  0.89531080    -0.72200
O31         O  0.11905172  0.30121140  0.91821259    -0.72100
O32         O  0.11274025  0.27006782  0.86521782    -0.72100
O33         O  0.13418594  0.30524984  0.85211683    -0.72000
O34         O  0.14070028  0.33666536  0.90570801    -0.72100
O35         O  0.17152168  0.30297769  0.88233297    -0.72000
O36         O  0.10332334  0.33970367  0.87523911    -0.72200
V37         V  0.11629145  0.28653530  0.89142969     1.35200
V38         V  0.13694112  0.32048416  0.87908714     1.35200
C39         C  0.08074843  0.32883102  0.88062210     0.77200
C40         C  0.17286009  0.27905463  0.88995589     0.77300
C41         C  0.13113649  0.32398305  0.92116579     0.77200
C42         C  0.12283295  0.28187294  0.84965688     0.77100
O43         O  0.87470402  0.51249677  0.88796260    -0.72000
O44         O  0.83688003  0.58113933  0.89547754    -0.72200
O45         O  0.84021823  0.54385914  0.86509586    -0.72100
O46         O  0.87071864  0.54977439  0.91839858    -0.72100
O47         O  0.90613556  0.57177433  0.90617951    -0.72000
O48         O  0.87538579  0.56579860  0.85242984    -0.72100
O49         O  0.87239665  0.60267354  0.88295815    -0.72000
O50         O  0.90976781  0.53478743  0.87548058    -0.72200
V51         V  0.85633128  0.54718081  0.89146787     1.35200
V52         V  0.89025379  0.56825769  0.87949000     1.35200
C53         C  0.89895518  0.51206712  0.88062137     0.77200
C54         C  0.84834906  0.60367303  0.89041970     0.77300
C55         C  0.85215135  0.55430159  0.84970661     0.77200
C56         C  0.89336711  0.56204109  0.92152740     0.77100
O57         O  0.49815216  0.30412676  0.63888820    -0.72000
O58         O  0.42948381  0.26613308  0.63154489    -0.72200
O59         O  0.46070889  0.30007658  0.60861197    -0.72100
O60         O  0.46702082  0.26940289  0.66185047    -0.72100
O61         O  0.44548165  0.30471625  0.67469803    -0.72000
O62         O  0.43823262  0.33518706  0.62087274    -0.72100
O63         O  0.40803869  0.30139072  0.64457656    -0.72000
O64         O  0.47574611  0.33923060  0.65122612    -0.72200
V65         V  0.46347415  0.28562212  0.63550046     1.35200
V66         V  0.44237708  0.31946250  0.64761084     1.35200
C67         C  0.49849436  0.32848060  0.64607782     0.77200
C68         C  0.40698740  0.27747099  0.63690261     0.77300
C69         C  0.44811414  0.32255274  0.60549731     0.77200
C70         C  0.45695067  0.28142970  0.67734641     0.77100
O71         O  0.70620032  0.51117938  0.63952192    -0.72000
O72         O  0.74479637  0.57936269  0.63169334    -0.72200
O73         O  0.74095269  0.54247905  0.66228658    -0.72100
O74         O  0.71077393  0.54802568  0.60888091    -0.72100
O75         O  0.67556724  0.57065837  0.62082519    -0.72000
O76         O  0.70593068  0.56488772  0.67474696    -0.72100
O77         O  0.70944112  0.60137648  0.64402939    -0.72000
O78         O  0.67129306  0.53402295  0.65171735    -0.72200
V79         V  0.72498384  0.54563193  0.63586449     1.35200
V80         V  0.69121986  0.56721675  0.64761314     1.35200
C81         C  0.68185375  0.51112118  0.64671039     0.77200
C82         C  0.73350369  0.60206808  0.63658788     0.77300
C83         C  0.72909075  0.55326133  0.67757992     0.77200
C84         C  0.68830978  0.56055173  0.60558525     0.77100
O85         O  0.70566861  0.92898537  0.88822544    -0.72000
O86         O  0.74404745  0.86043986  0.89542925    -0.72200
O87         O  0.74012088  0.89786328  0.86514035    -0.72100
O88         O  0.71035817  0.89182442  0.91860590    -0.72100
O89         O  0.67474469  0.86984774  0.90668250    -0.72000
O90         O  0.70517575  0.87534888  0.85270123    -0.72100
O91         O  0.70830491  0.83877089  0.88341422    -0.72000
O92         O  0.67081428  0.90641206  0.87570189    -0.72200
V93         V  0.72436342  0.89438623  0.89159265     1.35200
V94         V  0.69042996  0.87309265  0.87985488     1.35200
C95         C  0.68143796  0.92921612  0.88082032     0.77200
C96         C  0.73248738  0.83783708  0.89059135     0.77300
C97         C  0.72819856  0.88723503  0.84982828     0.77200
C98         C  0.68765556  0.87977578  0.92191225     0.77100
O99         O  0.49771976  0.13564262  0.88816390    -0.72000
O100        O  0.42950123  0.17419751  0.89587406    -0.72200
O101        O  0.46063398  0.13984719  0.91867880    -0.72100
O102        O  0.46669219  0.17063666  0.86543205    -0.72100
O103        O  0.44392774  0.13601119  0.85274644    -0.72000
O104        O  0.43850548  0.10456423  0.90636670    -0.72100
O105        O  0.40754480  0.13879254  0.88358178    -0.72000
O106        O  0.47505113  0.10107308  0.87529511    -0.72200
V107        V  0.46325309  0.15438984  0.89177653     1.35200
V108        V  0.44177009  0.12076668  0.87973129     1.35200
C109        C  0.49789094  0.11154905  0.88052241     0.77200
C110        C  0.40682361  0.16290086  0.89094949     0.77300
C111        C  0.44840185  0.11715818  0.92174597     0.77200
C112        C  0.45583124  0.15905909  0.85004781     0.77100
O113        O  0.37555975  0.42775922  0.38735659    -0.72000
O114        O  0.33749759  0.35904143  0.39401247    -0.72200
O115        O  0.37085723  0.39025155  0.41740632    -0.72100
O116        O  0.34135117  0.39680072  0.36397736    -0.72100
O117        O  0.37618658  0.37416533  0.35146372    -0.72000
O118        O  0.40689058  0.36896190  0.40546983    -0.72100
O119        O  0.37350589  0.33753908  0.38223545    -0.72000
O120        O  0.41043147  0.40557888  0.37444236    -0.72200
V121        V  0.35701819  0.39307482  0.39041235     1.35200
V122        V  0.39109873  0.37205102  0.37861884     1.35200
C123        C  0.39974864  0.42823565  0.37989255     0.77200
C124        C  0.34925627  0.33648871  0.38930701     0.77300
C125        C  0.39371127  0.37851602  0.42072621     0.77200
C126        C  0.35314349  0.38608159  0.34864550     0.77100
O127        O  0.58246920  0.63582310  0.38787390    -0.72000
O128        O  0.65069554  0.67446843  0.39516415    -0.72200
O129        O  0.61340547  0.67057746  0.36489321    -0.72100
O130        O  0.61965860  0.64039786  0.41824208    -0.72100
O131        O  0.64168249  0.60492549  0.40609410    -0.72000
O132        O  0.63619692  0.63587461  0.35231818    -0.72100
O133        O  0.67264319  0.63887808  0.38312760    -0.72000
O134        O  0.60512237  0.60115871  0.37510211    -0.72200
V135        V  0.61693729  0.65461924  0.39128033     1.35200
V136        V  0.63839824  0.62086696  0.37938183     1.35200
C137        C  0.58230211  0.61164196  0.38038574     0.77200
C138        C  0.67337453  0.66306145  0.39035614     0.77300
C139        C  0.62430819  0.65892598  0.34956104     0.77200
C140        C  0.63185318  0.61771813  0.42141291     0.77100
O141        O  0.99972073  0.63731108  0.13914646    -0.72000
O142        O  0.93080643  0.67514033  0.13219681    -0.72200
O143        O  0.96840714  0.67143602  0.16237262    -0.72100
O144        O  0.96232114  0.64190643  0.10890473    -0.72100
O145        O  0.94107913  0.60584006  0.12081453    -0.72000
O146        O  0.94593536  0.63645339  0.17479929    -0.72100
O147        O  0.90947839  0.63901114  0.14391292    -0.72000
O148        O  0.97754839  0.60236070  0.15191271    -0.72200
V149        V  0.96494320  0.65575323  0.13592693     1.35200
V150        V  0.94400935  0.62158609  0.14764580     1.35200
C151        C  0.00021871  0.61310581  0.14660955     0.77200
C152        C  0.90829905  0.66321100  0.13677641     0.77300
C153        C  0.95771539  0.65954212  0.17766386     0.77200
C154        C  0.95054917  0.61907442  0.10557316     0.77100
O155        O  0.20620243  0.42818862  0.13895959    -0.72000
O156        O  0.24279980  0.35875224  0.13132963    -0.72200
O157        O  0.20969989  0.39110358  0.10849904    -0.72100
O158        O  0.24013186  0.39607859  0.16177544    -0.72100
O159        O  0.20472302  0.37447550  0.17438003    -0.72000
O160        O  0.17372243  0.36982372  0.12052630    -0.72100
O161        O  0.20671677  0.33788230  0.14356584    -0.72000
O162        O  0.17088545  0.40640957  0.15154144    -0.72200
V163        V  0.22401945  0.39315117  0.13541312     1.35200
V164        V  0.18969279  0.37263053  0.14728175     1.35200
C165        C  0.18196817  0.42896666  0.14634780     0.77200
C166        C  0.23076706  0.33640617  0.13618438     0.77300
C167        C  0.18671875  0.37957364  0.10527433     0.77200
C168        C  0.22808547  0.38573885  0.17714248     0.77100
O169        O  0.37491895  0.01180483  0.14028105    -0.72000
O170        O  0.33630401  0.07986255  0.13215203    -0.72200
O171        O  0.37044307  0.04831008  0.10946600    -0.72100
O172        O  0.34018329  0.04318285  0.16284713    -0.72100
O173        O  0.37520788  0.06559057  0.17527769    -0.72000
O174        O  0.40545828  0.07131810  0.12129930    -0.72100
O175        O  0.37147711  0.10202769  0.14460493    -0.72000
O176        O  0.40984877  0.03479434  0.15226452    -0.72200
V177        V  0.35615569  0.04619306  0.13643800     1.35200
V178        V  0.38985101  0.06792214  0.14812602     1.35200
C179        C  0.39923933  0.01183768  0.14748385     0.77200
C180        C  0.34737501  0.10258956  0.13724026     0.77300
C181        C  0.39288114  0.06084137  0.10612339     0.77200
C182        C  0.35209445  0.05389921  0.17813254     0.77100
O183        O  0.58380150  0.80690536  0.14067178    -0.72000
O184        O  0.65207176  0.76894420  0.13219215    -0.72200
O185        O  0.61566715  0.77228755  0.16302492    -0.72100
O186        O  0.62017816  0.80294617  0.10975416    -0.72100
O187        O  0.64299116  0.83806544  0.12162539    -0.72000
O188        O  0.63752117  0.80759489  0.17556839    -0.72100
O189        O  0.67401877  0.80416063  0.14479433    -0.72000
O190        O  0.60645959  0.84210996  0.15257012    -0.72200
V191        V  0.61831257  0.78848176  0.13667437     1.35200
V192        V  0.63975786  0.82232790  0.14841591     1.35200
C193        C  0.58360736  0.83128319  0.14777662     0.77200
C194        C  0.67473147  0.78012831  0.13726226     0.77300
C195        C  0.62624926  0.78424817  0.17834251     0.77200
C196        C  0.63254710  0.82548503  0.10643921     0.77100
O197        O  0.99880740  0.80505876  0.38776291    -0.72000
O198        O  0.92976138  0.76769184  0.39499260    -0.72200
O199        O  0.96716485  0.77116409  0.36474948    -0.72100
O200        O  0.96161280  0.80079069  0.41818888    -0.72100
O201        O  0.93993566  0.83668770  0.40641242    -0.72000
O202        O  0.94542732  0.80660784  0.35230114    -0.72100
O203        O  0.90858845  0.80369618  0.38289535    -0.72000
O204        O  0.97667455  0.84041970  0.37557800    -0.72200
V205        V  0.96395755  0.78688372  0.39117365     1.35200
V206        V  0.94313851  0.82117987  0.37952331     1.35200
C207        C  0.99934362  0.82938551  0.38053464     0.77200
C208        C  0.90733576  0.77951422  0.39005458     0.77300
C209        C  0.95688211  0.78334855  0.34943691     0.77200
C210        C  0.94971564  0.82354787  0.42158774     0.77100
O211        O  0.20584798  0.01169322  0.38778783    -0.72000
O212        O  0.24350638  0.08032603  0.39579229    -0.72200
O213        O  0.20964215  0.04857899  0.41846594    -0.72100
O214        O  0.24033041  0.04330321  0.36523562    -0.72100
O215        O  0.20519021  0.06532543  0.35259386    -0.72000
O216        O  0.17425698  0.07075665  0.40635843    -0.72100
O217        O  0.20800738  0.10196297  0.38333669    -0.72000
O218        O  0.17079198  0.03409755  0.37539309    -0.72200
V219        V  0.22413190  0.04636242  0.39156379     1.35200
V220        V  0.19022471  0.06754402  0.37965295     1.35200
C221        C  0.18166194  0.01131940  0.38033479     0.77200
C222        C  0.23204153  0.10291059  0.39081797     0.77300
C223        C  0.18694980  0.06074000  0.42164566     0.77200
C224        C  0.22840873  0.05377210  0.34986340     0.77100
C225        C  0.02540108  0.84525238  0.37820250    -0.03600
C226        C  0.05101026  0.83447109  0.38456520    -0.09300
C227        C  0.07504021  0.85066015  0.38333902    -0.17000
C228        C  0.07371384  0.87772439  0.37570589     0.25200
C229        C  0.04840667  0.88828788  0.36897581    -0.18600
C230        C  0.02450409  0.87224683  0.37018255    -0.07600
C231        C  0.09769738  0.89548125  0.37551515    -0.14000
C232        C  0.11537774  0.91312150  0.37538801    -0.13700
C233        C  0.13330378  0.93698519  0.37534350     0.25100
C234        C  0.12338875  0.96200613  0.36752663    -0.19100
C235        C  0.13947634  0.98590683  0.36872177    -0.07600
C236        C  0.16585190  0.98525747  0.37779624    -0.03700
C237        C  0.17605000  0.95988177  0.38514308    -0.09000
C238        C  0.15981836  0.93589279  0.38395950    -0.16600
H239        H  0.05237075  0.81378902  0.39080661     0.11500
H240        H  0.09450464  0.84225007  0.38864464     0.10800
H241        H  0.04704224  0.90918120  0.36308966     0.10700
H242        H  0.00518341  0.88123554  0.36512303     0.11300
H243        H  0.10291832  0.96318337  0.36085984     0.11300
H244        H  0.13099127  0.00504410  0.36286012     0.11300
H245        H  0.19625061  0.95871113  0.39221350     0.11400
H246        H  0.16771978  0.91666795  0.39011456     0.10200
C247        C  0.33863139  0.05330943  0.19856595    -0.03600
C248        C  0.31297930  0.04000221  0.20103825    -0.09300
C249        C  0.29931840  0.04046628  0.21991201    -0.17000
C250        C  0.31100218  0.05422829  0.23664805     0.25200
C251        C  0.33663492  0.06737581  0.23442749    -0.18600
C252        C  0.35038753  0.06693143  0.21550526    -0.07600
C253        C  0.29654487  0.05476998  0.25600289    -0.14000
C254        C  0.28406982  0.05462819  0.27204847    -0.13700
C255        C  0.26956405  0.05388227  0.29137885     0.25100
C256        C  0.28211654  0.04180938  0.30848199    -0.19100
C257        C  0.26844855  0.04136049  0.32735488    -0.07600
C258        C  0.24194714  0.05304064  0.32946223    -0.03700
C259        C  0.22930367  0.06487599  0.31214565    -0.09000
C260        C  0.24304010  0.06526212  0.29322036    -0.16600
H261        H  0.30328364  0.02940920  0.18831126     0.11500
H262        H  0.27953384  0.03019786  0.22141251     0.10800
H263        H  0.34591152  0.07809677  0.24727612     0.10700
H264        H  0.37001031  0.07748917  0.21407080     0.11300
H265        H  0.30259159  0.03289721  0.30727377     0.11300
H266        H  0.27882343  0.03214882  0.34037296     0.11300
H267        H  0.20896512  0.07407495  0.31327448     0.11400
H268        H  0.23306892  0.07461852  0.28007771     0.10200
C269        C  0.41552383  0.98605900  0.14986849    -0.03600
C270        C  0.44215976  0.98723830  0.15847157    -0.09300
C271        C  0.45869425  0.96363950  0.15947612    -0.17000
C272        C  0.44897464  0.93839748  0.15194358     0.25200
C273        C  0.42222554  0.93676483  0.14378385    -0.18600
C274        C  0.40554103  0.96046419  0.14278388    -0.07600
C275        C  0.46728557  0.91484353  0.15183731    -0.14000
C276        C  0.48525894  0.89750619  0.15180606    -0.13700
C277        C  0.50933184  0.87987987  0.15182404     0.25100
C278        C  0.50811458  0.85278061  0.14428940    -0.19100
C279        C  0.53212447  0.83656190  0.14338543    -0.07600
C280        C  0.55763919  0.84732705  0.14996685    -0.03700
C281        C  0.55846922  0.87438915  0.15785271    -0.09000
C282        C  0.53454060  0.89048608  0.15874911    -0.16600
H283        H  0.45049673  0.00656188  0.16410675     0.11500
H284        H  0.47933714  0.96521672  0.16579393     0.10800
H285        H  0.41447225  0.91734759  0.13786261     0.10700
H286        H  0.38514804  0.95890078  0.13606886     0.11300
H287        H  0.48874055  0.84434641  0.13883013     0.11300
H288        H  0.53082400  0.81584301  0.13719677     0.11300
H289        H  0.57773829  0.88335274  0.16303287     0.11400
H290        H  0.53580138  0.91142533  0.16456333     0.10200
C291        C  0.33283652  0.12934635  0.13499213    -0.03600
C292        C  0.30747820  0.13132270  0.12457745    -0.09300
C293        C  0.29416794  0.15693259  0.12263778    -0.17000
C294        C  0.30601408  0.18075350  0.13114457     0.25200
C295        C  0.33112331  0.17885757  0.14162295    -0.18600
C296        C  0.34446302  0.15341403  0.14350299    -0.07600
C297        C  0.29247604  0.20718927  0.12948622    -0.14000
C298        C  0.28182254  0.22973807  0.12913928    -0.13700
C299        C  0.26890835  0.25655467  0.13005078     0.25100
C300        C  0.28298532  0.28022421  0.12337982    -0.19100
C301        C  0.27063739  0.30634067  0.12514703    -0.07600
C302        C  0.24406230  0.30901650  0.13363446    -0.03700
C303        C  0.23005044  0.28503483  0.14007814    -0.09000
C304        C  0.24239589  0.25906905  0.13832210    -0.16600
H305        H  0.29803182  0.11315829  0.11788948     0.11500
H306        H  0.27466444  0.15814533  0.11454884     0.10800
H307        H  0.34041619  0.19708280  0.14837032     0.10700
H308        H  0.36387098  0.15259519  0.15173544     0.11300
H309        H  0.30358080  0.27852459  0.11700147     0.11300
H310        H  0.28191215  0.32438697  0.12003622     0.11300
H311        H  0.20956635  0.28631930  0.14668751     0.11400
H312        H  0.23133344  0.24095838  0.14360603     0.10200
C313        C  0.88103444  0.67670428  0.13407035    -0.03600
C314        C  0.85676681  0.66209725  0.13902591    -0.09300
C315        C  0.83086813  0.67450292  0.13701895    -0.17000
C316        C  0.82870443  0.70169811  0.13001138     0.25200
C317        C  0.85267617  0.71640130  0.12483855    -0.18600
C318        C  0.87872562  0.70397247  0.12682459    -0.07600
C319        C  0.80190320  0.71462817  0.12891644    -0.14000
C320        C  0.77935405  0.72529264  0.12914316    -0.13700
C321        C  0.75294061  0.73890559  0.13072992     0.25100
C322        C  0.75135189  0.76484438  0.14008417    -0.19100
C323        C  0.72591359  0.77817742  0.14206851    -0.07600
C324        C  0.70154558  0.76573759  0.13476744    -0.03700
C325        C  0.70324089  0.73960684  0.12539315    -0.09000
C326        C  0.72883063  0.72627820  0.12338041    -0.16600
H327        H  0.85775754  0.64105285  0.14461452     0.11500
H328        H  0.81252250  0.66293839  0.14113515     0.10800
H329        H  0.85125150  0.73752944  0.11946179     0.10700
H330        H  0.89699781  0.71572389  0.12287975     0.11300
H331        H  0.76980874  0.77476215  0.14592299     0.11300
H332        H  0.72534214  0.79821799  0.14944441     0.11300
H333        H  0.68484792  0.72950042  0.11965593     0.11400
H334        H  0.72979382  0.70612975  0.11617697     0.10200
C335        C  0.95779730  0.76996365  0.32898046    -0.03600
C336        C  0.96855127  0.74304069  0.32703254    -0.09300
C337        C  0.96845541  0.72951685  0.30811047    -0.17000
C338        C  0.95768854  0.74262562  0.29076824     0.25200
C339        C  0.94720546  0.76955574  0.29244905    -0.18600
C340        C  0.94720632  0.78315251  0.31144962    -0.07600
C341        C  0.95730072  0.72819486  0.27138976    -0.14000
C342        C  0.95737187  0.71557907  0.25539614    -0.13700
C343        C  0.95795761  0.70090138  0.23611948     0.25100
C344        C  0.97098570  0.71280756  0.21915406    -0.19100
C345        C  0.97127909  0.69904231  0.20031938    -0.07600
C346        C  0.95851088  0.67306018  0.19809229    -0.03700
C347        C  0.94569228  0.66104722  0.21527154    -0.09000
C348        C  0.94544355  0.67489873  0.23416938    -0.16600
H349        H  0.97676923  0.73221339  0.34021563     0.11500
H350        H  0.97663079  0.70872171  0.30704501     0.10800
H351        H  0.93884638  0.77995651  0.27912009     0.10700
H352        H  0.93875303  0.80382402  0.31245515     0.11300
H353        H  0.98076702  0.73286942  0.22043469     0.11300
H354        H  0.98127045  0.70894942  0.18741645     0.11300
H355        H  0.93560935  0.64114818  0.21404612     0.11400
H356        H  0.93531199  0.66543228  0.24720204     0.10200
C357        C  0.02620830  0.59698083  0.14867179    -0.03600
C358        C  0.05111397  0.60602029  0.13978230    -0.09300
C359        C  0.07477681  0.58920812  0.14037751    -0.17000
C360        C  0.07385801  0.56326972  0.14995476     0.25200
C361        C  0.04934766  0.55454902  0.15929321    -0.18600
C362        C  0.02577018  0.57119676  0.15866814    -0.07600
C363        C  0.09736910  0.54479879  0.14957184    -0.14000
C364        C  0.11494664  0.52700222  0.14950967    -0.13700
C365        C  0.13308438  0.50323100  0.14978312     0.25100
C366        C  0.12393068  0.47873617  0.15890688    -0.19100
C367        C  0.14026853  0.45495098  0.15824716    -0.07600
C368        C  0.16617552  0.45515349  0.14842873    -0.03700
C369        C  0.17563678  0.48002135  0.13971881    -0.09000
C370        C  0.15913272  0.50390487  0.14035337    -0.16600
H371        H  0.05210007  0.62569715  0.13192465     0.11500
H372        H  0.09359338  0.59621060  0.13304887     0.10800
H373        H  0.04828533  0.53456842  0.16674394     0.10700
H374        H  0.00699876  0.56358833  0.16571740     0.11300
H375        H  0.10385583  0.47785979  0.16623405     0.11300
H376        H  0.13232782  0.43621132  0.16513817     0.11300
H377        H  0.19541397  0.48082164  0.13198477     0.11400
H378        H  0.16646550  0.52270754  0.13318527     0.10200
C379        C  0.70028521  0.67726075  0.39280870    -0.03600
C380        C  0.70186280  0.70502243  0.39908699    -0.09300
C381        C  0.72757344  0.71820879  0.40067850    -0.17000
C382        C  0.75191906  0.70375844  0.39609066     0.25200
C383        C  0.75046889  0.67610683  0.39002139    -0.18600
C384        C  0.72490983  0.66295752  0.38838633    -0.07600
C385        C  0.77844596  0.71721474  0.39704477    -0.14000
C386        C  0.80104432  0.72774654  0.39692158    -0.13700
C387        C  0.82784279  0.74061827  0.39570580     0.25100
C388        C  0.85166474  0.72642255  0.40193750    -0.19100
C389        C  0.87768353  0.73896550  0.40024934    -0.07600
C390        C  0.88010077  0.76585422  0.39228456    -0.03700
C391        C  0.85599428  0.77988399  0.38611945    -0.09000
C392        C  0.83012813  0.76735220  0.38780696    -0.16600
H393        H  0.68327687  0.71657663  0.40254328     0.11500
H394        H  0.72844852  0.73967909  0.40533108     0.10800
H395        H  0.76912265  0.66472900  0.38638664     0.10700
H396        H  0.72445918  0.64156482  0.38352898     0.11300
H397        H  0.85014162  0.70564497  0.40800428     0.11300
H398        H  0.89584307  0.72764149  0.40508312     0.11300
H399        H  0.85708785  0.80058451  0.37987511     0.11400
H400        H  0.81189711  0.77850167  0.38285223     0.10200
C401        C  0.62600211  0.77053273  0.19869763    -0.03600
C402        C  0.63527023  0.78423033  0.21643620    -0.09300
C403        C  0.63565607  0.77051983  0.23539288    -0.17000
C404        C  0.62695785  0.74293895  0.23682051     0.25200
C405        C  0.61776822  0.72922817  0.21922788    -0.18600
C406        C  0.61723561  0.74287996  0.20035622    -0.07600
C407        C  0.62722787  0.72856052  0.25623433    -0.14000
C408        C  0.62678269  0.71591922  0.27221942    -0.13700
C409        C  0.62559499  0.70103821  0.29140604     0.25100
C410        C  0.63753905  0.67475473  0.29326509    -0.19100
C411        C  0.63669696  0.66065909  0.31204519    -0.07600
C412        C  0.62383340  0.67268472  0.32921340    -0.03700
C413        C  0.61158507  0.69893218  0.32707772    -0.09000
C414        C  0.61248278  0.71295735  0.30835004    -0.16600
H415        H  0.64223404  0.80546231  0.21565050     0.11500
H416        H  0.64280058  0.78139454  0.24890344     0.10800
H417        H  0.61102373  0.70791407  0.22008199     0.10700
H418        H  0.61020076  0.73162588  0.18699286     0.11300
H419        H  0.64770450  0.66525391  0.28025341     0.11300
H420        H  0.64639594  0.64055745  0.31319685     0.11300
H421        H  0.60160076  0.70886035  0.33998194     0.11400
H422        H  0.60311717  0.73322721  0.30713967     0.10200
C423        C  0.33542169  0.30936411  0.39181662    -0.03600
C424        C  0.34897165  0.28506090  0.38547379    -0.09300
C425        C  0.33626602  0.25931172  0.38759518    -0.17000
C426        C  0.30984371  0.25734620  0.39612246     0.25200
C427        C  0.29615141  0.28137650  0.40254096    -0.18600
C428        C  0.30885383  0.30726050  0.40040606    -0.07600
C429        C  0.29669409  0.23068635  0.39771026    -0.14000
C430        C  0.28590661  0.20819130  0.39799568    -0.13700
C431        C  0.27235244  0.18168440  0.39699120     0.25100
C432        C  0.24570360  0.17993026  0.38884816    -0.19100
C433        C  0.23264520  0.15432086  0.38705949    -0.07600
C434        C  0.24605381  0.12993628  0.39336260    -0.03700
C435        C  0.27278542  0.13183577  0.40170167    -0.09000
C436        C  0.28585539  0.15759106  0.40349231    -0.16600
H437        H  0.36941593  0.28591570  0.37876156     0.11500
H438        H  0.34702788  0.24092280  0.38248000     0.10800
H439        H  0.27562613  0.28012321  0.40909416     0.10700
H440        H  0.29791160  0.32556790  0.40542735     0.11300
H441        H  0.23507007  0.19837195  0.38370075     0.11300
H442        H  0.21207465  0.15362825  0.38055955     0.11300
H443        H  0.28362866  0.11345546  0.40668507     0.11400
H444        H  0.30654191  0.15868128  0.40977108     0.10200
C445        C  0.33951253  0.38696056  0.32823908    -0.03600
C446        C  0.31397396  0.40059816  0.32595200    -0.09300
C447        C  0.29999434  0.40028305  0.30719364    -0.17000
C448        C  0.31122454  0.38634736  0.29035301     0.25200
C449        C  0.33679556  0.37297135  0.29236632    -0.18600
C450        C  0.35086817  0.37326251  0.31117849    -0.07600
C451        C  0.29634403  0.38573961  0.27113085    -0.14000
C452        C  0.28368652  0.38564439  0.25513754    -0.13700
C453        C  0.26918620  0.38605353  0.23575478     0.25100
C454        C  0.28143936  0.39855428  0.21869522    -0.19100
C455        C  0.26782864  0.39874553  0.19978929    -0.07600
C456        C  0.24163841  0.38641693  0.19757490    -0.03700
C457        C  0.22931639  0.37405864  0.21482432    -0.09000
C458        C  0.24301402  0.37390176  0.23378734    -0.16600
H459        H  0.30457009  0.41129625  0.33875763     0.11500
H460        H  0.28028608  0.41075298  0.30588127     0.10800
H461        H  0.34575468  0.36212724  0.27944592     0.10700
H462        H  0.37039120  0.36247560  0.31244702     0.11300
H463        H  0.30164057  0.40803784  0.21996676     0.11300
H464        H  0.27798066  0.40836969  0.18683764     0.11300
H465        H  0.20925192  0.36431027  0.21361892     0.11400
H466        H  0.23327021  0.36415677  0.24686864     0.10200
C467        C  0.41584876  0.45422523  0.37801057    -0.03600
C468        C  0.40728594  0.47871429  0.38777080    -0.09300
C469        C  0.42403716  0.50239312  0.38726957    -0.17000
C470        C  0.44941428  0.50191819  0.37689567     0.25200
C471        C  0.45767911  0.47782271  0.36674755    -0.18600
C472        C  0.44110280  0.45419901  0.36730492    -0.07600
C473        C  0.46778092  0.52546834  0.37723976    -0.14000
C474        C  0.48541455  0.54317500  0.37722912    -0.13700
C475        C  0.50892619  0.56158656  0.37691897     0.25100
C476        C  0.53367858  0.55257050  0.36809028    -0.19100
C477        C  0.55721853  0.56924384  0.36876222    -0.07600
C478        C  0.55647233  0.59533045  0.37830036    -0.03700
C479        C  0.53133889  0.60462870  0.38669212    -0.09000
C480        C  0.50772004  0.58780445  0.38604191    -0.16600
H481        H  0.38804544  0.47933974  0.39622477     0.11500
H482        H  0.41742413  0.52087446  0.39525329     0.10800
H483        H  0.47724487  0.47711920  0.35869027     0.10700
H484        H  0.44831426  0.43573189  0.35959914     0.11300
H485        H  0.53494119  0.53236256  0.36099449     0.11300
H486        H  0.57618012  0.56143878  0.36211370     0.11300
H487        H  0.53011407  0.62455971  0.39417940     0.11400
H488        H  0.48870267  0.59503196  0.39296450     0.10200
C489        C  0.40346122  0.06341998  0.08485274    -0.03600
C490        C  0.42510085  0.08168652  0.08001898    -0.09300
C491        C  0.43340970  0.08536018  0.05959380    -0.17000
C492        C  0.42034790  0.07069468  0.04378224     0.25200
C493        C  0.39931006  0.05196481  0.04856558    -0.18600
C494        C  0.39090966  0.04836557  0.06889964    -0.07600
C495        C  0.42750913  0.07571603  0.02259351    -0.14000
C496        C  0.43237267  0.08078254  0.00479962    -0.13700
C497        C  0.43754817  0.08853514  0.98374517     0.25100
C498        C  0.42404709  0.07501509  0.96757925    -0.19100
C499        C  0.42802370  0.08376999  0.94728189    -0.07600
C500        C  0.44544327  0.10629297  0.94292617    -0.03700
C501        C  0.45926420  0.11937038  0.95925299    -0.09000
C502        C  0.45535585  0.11054387  0.97945371    -0.16600
H503        H  0.43510944  0.09361747  0.09193559     0.11500
H504        H  0.44967782  0.09998643  0.05610348     0.10800
H505        H  0.38901487  0.04049216  0.03652205     0.10700
H506        H  0.37427019  0.03404814  0.07209200     0.11300
H507        H  0.41012938  0.05799925  0.97068318     0.11300
H508        H  0.41702477  0.07333785  0.93507622     0.11300
H509        H  0.47286881  0.13672046  0.95645369     0.11400
H510        H  0.46590485  0.12121766  0.99177797     0.10200
C511        C  0.67711840  0.87723200  0.94319658    -0.03600
C512        C  0.69049621  0.89135457  0.95925166    -0.09300
C513        C  0.68186717  0.88803508  0.97955039    -0.17000
C514        C  0.65976179  0.87052719  0.98420260     0.25200
C515        C  0.64598358  0.85669620  0.96831336    -0.18600
C516        C  0.65453954  0.86008269  0.94791601    -0.07600
C517        C  0.65218234  0.86590970  0.00534729    -0.14000
C518        C  0.64713989  0.86117886  0.02315500    -0.13700
C519        C  0.64204927  0.85367331  0.04425211     0.25100
C520        C  0.62585724  0.83050205  0.04866297    -0.19100
C521        C  0.62233203  0.82182278  0.06892426    -0.07600
C522        C  0.63499278  0.83616778  0.08518648    -0.03700
C523        C  0.65071133  0.85986210  0.08070716    -0.09000
C524        C  0.65425056  0.86851689  0.06034656    -0.16600
H525        H  0.70789931  0.90477710  0.95616281     0.11500
H526        H  0.69274964  0.89881134  0.99166402     0.10800
H527        H  0.62890408  0.84298542  0.97171465     0.10700
H528        H  0.64388811  0.84887420  0.93592174     0.11300
H529        H  0.61634136  0.81880084  0.03638859     0.11300
H530        H  0.61003493  0.80354597  0.07180922     0.11300
H531        H  0.66071089  0.87134167  0.09286825     0.11400
H532        H  0.66689443  0.88646677  0.05713882     0.10200
C533        C  0.66520143  0.95506815  0.87851254    -0.03600
C534        C  0.63962562  0.95438066  0.86824859    -0.09300
C535        C  0.62293742  0.97789139  0.86723494    -0.17000
C536        C  0.63141460  0.00256450  0.87645521     0.25200
C537        C  0.65713025  0.00371672  0.88633242    -0.18600
C538        C  0.67399284  0.98012240  0.88730890    -0.07600
C539        C  0.61288041  0.02599807  0.87645315    -0.14000
C540        C  0.59509207  0.04356076  0.87634407    -0.13700
C541        C  0.57150431  0.06189729  0.87618526     0.25100
C542        C  0.57257693  0.08785049  0.88571543    -0.19100
C543        C  0.54887800  0.10454178  0.88665187    -0.07600
C544        C  0.52377636  0.09537071  0.87815434    -0.03700
C545        C  0.52315389  0.06957066  0.86818839    -0.09000
C546        C  0.54679095  0.05302712  0.86722166    -0.16600
H547        H  0.63222878  0.93548114  0.86125349     0.11500
H548        H  0.60312242  0.97665971  0.85957145     0.10800
H549        H  0.66391908  0.02266955  0.89358848     0.10700
H550        H  0.69350771  0.98128544  0.89536306     0.11300
H551        H  0.59155355  0.09495369  0.89275626     0.11300
H552        H  0.55001450  0.12425465  0.89445730     0.11300
H553        H  0.50422036  0.06188826  0.86143229     0.11400
H554        H  0.54562585  0.03301564  0.85981714     0.10200
C555        C  0.63484457  0.60710736  0.44264272    -0.03600
C556        C  0.62141729  0.62066740  0.45894400    -0.09300
C557        C  0.62539349  0.61206610  0.47918478    -0.17000
C558        C  0.64286153  0.58979968  0.48352655     0.25200
C559        C  0.65594663  0.57580325  0.46739142    -0.18600
C560        C  0.65191502  0.58434121  0.44705932    -0.07600
C561        C  0.64815381  0.58222521  0.50458471    -0.14000
C562        C  0.65326201  0.57711911  0.52232502    -0.13700
C563        C  0.66082791  0.57181553  0.54338303     0.25100
C564        C  0.68357724  0.55497890  0.54771268    -0.19100
C565        C  0.69205696  0.55091730  0.56797142    -0.07600
C566        C  0.67790867  0.56364931  0.58430487    -0.03700
C567        C  0.65472151  0.58014429  0.57988751    -0.09000
C568        C  0.64628223  0.58423348  0.55953964    -0.16600
H569        H  0.60808896  0.63822292  0.45609297     0.11500
H570        H  0.61517123  0.62310366  0.49149174     0.10800
H571        H  0.66959322  0.55857881  0.47054449     0.10700
H572        H  0.66259662  0.57353637  0.43486941     0.11300
H573        H  0.69505421  0.54529515  0.53538794     0.11300
H574        H  0.70997730  0.53808169  0.57081096     0.11300
H575        H  0.64345456  0.59028945  0.59209901     0.11400
H576        H  0.62867994  0.59739171  0.55639690     0.10200
C577        C  0.44480447  0.33309662  0.58426068    -0.03600
C578        C  0.45780938  0.31928930  0.56788672    -0.09300
C579        C  0.45381810  0.32795164  0.54767054    -0.17000
C580        C  0.43676407  0.35054743  0.54339296     0.25200
C581        C  0.42396249  0.36471544  0.55958248    -0.18600
C582        C  0.42799724  0.35609293  0.57991064    -0.07600
C583        C  0.43179767  0.35834195  0.52232670    -0.14000
C584        C  0.42723707  0.36340024  0.50449163    -0.13700
C585        C  0.42025598  0.36850359  0.48328759     0.25100
C586        C  0.39720767  0.38470745  0.47858160    -0.19100
C587        C  0.38911992  0.38837279  0.45820828    -0.07600
C588        C  0.40393817  0.37586004  0.44209722    -0.03700
C589        C  0.42750167  0.36010634  0.44686963    -0.09000
C590        C  0.43556327  0.35641243  0.46736364    -0.16600
H591        H  0.47088621  0.30152485  0.57066221     0.11500
H592        H  0.46378997  0.31675869  0.53532781     0.10800
H593        H  0.41061433  0.38218958  0.55648302     0.10700
H594        H  0.41762085  0.36708471  0.59215360     0.11300
H595        H  0.38515587  0.39415310  0.49070534     0.11300
H596        H  0.37092547  0.40070494  0.45511207     0.11300
H597        H  0.43931168  0.35019455  0.43483714     0.11400
H598        H  0.45343179  0.34375918  0.47080148     0.10200
C599        C  0.45655153  0.17271475  0.82964168    -0.03600
C600        C  0.47024630  0.19817328  0.82716013    -0.09300
C601        C  0.47015739  0.21176630  0.80822259    -0.17000
C602        C  0.45636946  0.20022447  0.79142077     0.25200
C603        C  0.44271332  0.17486148  0.79370746    -0.18600
C604        C  0.44279438  0.16118683  0.81267077    -0.07600
C605        C  0.45633820  0.21445436  0.77190921    -0.14000
C606        C  0.45669229  0.22656439  0.75567659    -0.13700
C607        C  0.45737835  0.24078445  0.73616723     0.25100
C608        C  0.44671957  0.26760790  0.73429220    -0.19100
C609        C  0.44696099  0.28111437  0.71526686    -0.07600
C610        C  0.45793992  0.26798298  0.69782496    -0.03700
C611        C  0.46889334  0.24115897  0.69993063    -0.09000
C612        C  0.46857911  0.22769917  0.71892379    -0.16600
H613        H  0.48093166  0.20771711  0.83990728     0.11500
H614        H  0.48079509  0.23135350  0.80671137     0.10800
H615        H  0.43192727  0.16568521  0.78085049     0.10700
H616        H  0.43190896  0.14174043  0.81409154     0.11300
H617        H  0.43801811  0.27801527  0.74750447     0.11300
H618        H  0.43831690  0.30169657  0.71416907     0.11300
H619        H  0.47740388  0.23037897  0.68682255     0.11400
H620        H  0.47690820  0.20698098  0.72011748     0.10200
C621        C  0.52443084  0.34467712  0.64808363    -0.03600
C622        C  0.54956347  0.33519684  0.63979885    -0.09300
C623        C  0.57331647  0.35184875  0.64056818    -0.17000
C624        C  0.57224480  0.37807089  0.64970859     0.25200
C625        C  0.54746379  0.38729302  0.65836807    -0.18600
C626        C  0.52380323  0.37080449  0.65757200    -0.07600
C627        C  0.59592003  0.39629829  0.64960887    -0.14000
C628        C  0.61358472  0.41398398  0.64974488    -0.13700
C629        C  0.63182717  0.43764533  0.65008206     0.25100
C630        C  0.62201573  0.46282358  0.65771027    -0.19100
C631        C  0.63862634  0.48641738  0.65707178    -0.07600
C632        C  0.66544549  0.48532034  0.64874819    -0.03700
C633        C  0.67547687  0.45980159  0.64153066    -0.09000
C634        C  0.65873092  0.43611609  0.64217153    -0.16600
H635        H  0.55070103  0.31523973  0.63234305     0.11500
H636        H  0.59234628  0.34446769  0.63375501     0.10800
H637        H  0.54628634  0.40750959  0.66545898     0.10700
H638        H  0.50485346  0.37876252  0.66413843     0.11300
H639        H  0.60126932  0.46435106  0.66385142     0.11300
H640        H  0.63021464  0.50567855  0.66277630     0.11300
H641        H  0.69598759  0.45828239  0.63500375     0.11400
H642        H  0.66658867  0.41676976  0.63618815     0.10200
C643        C  0.83438107  0.63071329  0.89291282    -0.03600
C644        C  0.84752946  0.65493319  0.88602094    -0.09300
C645        C  0.83469026  0.68061535  0.88801024    -0.17000
C646        C  0.80853403  0.68260985  0.89695469     0.25200
C647        C  0.79522200  0.65866742  0.90394986    -0.18600
C648        C  0.80807018  0.63282208  0.90194471    -0.07600
C649        C  0.79533869  0.70924925  0.89834945    -0.14000
C650        C  0.78488926  0.73189931  0.89833009    -0.13700
C651        C  0.77189290  0.75863859  0.89694317     0.25100
C652        C  0.74527703  0.76069523  0.88880821    -0.19100
C653        C  0.73261894  0.78647025  0.88686202    -0.07600
C654        C  0.74639092  0.81073339  0.89300145    -0.03700
C655        C  0.77317810  0.80856091  0.90119119    -0.09000
C656        C  0.78585658  0.78261781  0.90313899    -0.16600
H657        H  0.86775653  0.65406485  0.87895476     0.11500
H658        H  0.84514042  0.69893983  0.88245500     0.10800
H659        H  0.77489566  0.65995548  0.91083673     0.10700
H660        H  0.79744397  0.61455937  0.90739000     0.11300
H661        H  0.73431666  0.74234841  0.88386092     0.11300
H662        H  0.71200662  0.78736333  0.88044692     0.11300
H663        H  0.78430274  0.82684388  0.90601718     0.11400
H664        H  0.80655380  0.78127648  0.90937283     0.10200
C665        C  0.90396814  0.56532073  0.94273267    -0.03600
C666        C  0.88909786  0.55412568  0.95931710    -0.09300
C667        C  0.89784881  0.55843983  0.97947703    -0.17000
C668        C  0.92161283  0.57396380  0.98345341     0.17200
C669        C  0.93688430  0.58480837  0.96705595    -0.18600
C670        C  0.92814952  0.58049261  0.94680412    -0.07600
C671        C  0.92949248  0.57954573  0.00439604    -0.14000
C672        C  0.93464346  0.58474374  0.02210818    -0.13700
C673        C  0.93978502  0.59220652  0.04319751     0.25100
C674        C  0.95581375  0.61546997  0.04766443    -0.19100
C675        C  0.95971468  0.62374744  0.06798096    -0.07600
C676        C  0.94761950  0.60888461  0.08423194    -0.03700
C677        C  0.93191680  0.58522445  0.07966918    -0.09000
C678        C  0.92799185  0.57698272  0.05925940    -0.16600
H679        H  0.87039795  0.54235140  0.95674937     0.11500
H680        H  0.88581113  0.54998830  0.99199764     0.10800
H681        H  0.95529207  0.59692811  0.96992839     0.10700
H682        H  0.94001515  0.58941093  0.93438732     0.11300
H683        H  0.96499289  0.62747610  0.03541264     0.11300
H684        H  0.97192988  0.64206262  0.07093123     0.11300
H685        H  0.92226825  0.57342287  0.09181462     0.11400
H686        H  0.91544783  0.55897993  0.05599692     0.10200
C687        C  0.83863178  0.55369574  0.82928248    -0.03600
C688        C  0.81198719  0.54238463  0.82713056    -0.09300
C689        C  0.79842905  0.54292376  0.80820523    -0.17000
C690        C  0.81123077  0.55472249  0.79108755     0.25200
C691        C  0.83785080  0.56583576  0.79300304    -0.18600
C692        C  0.85146923  0.56536341  0.81197457    -0.07600
C693        C  0.79694687  0.55533235  0.77164317    -0.14000
C694        C  0.78466099  0.55527459  0.75550575    -0.13700
C695        C  0.77030362  0.55448857  0.73609355     0.25100
C696        C  0.78289447  0.54219361  0.71907694    -0.19100
C697        C  0.76922530  0.54139200  0.70020123    -0.07600
C698        C  0.74267432  0.55292819  0.69799149    -0.03700
C699        C  0.73006345  0.56513303  0.71519384    -0.09000
C700        C  0.74379511  0.56586856  0.73411987    -0.16600
H701        H  0.80143685  0.53336480  0.84014612     0.11500
H702        H  0.77786906  0.53424051  0.80695607     0.10800
H703        H  0.84801966  0.57500146  0.77986839     0.10700
H704        H  0.87190214  0.57432581  0.81313528     0.11300
H705        H  0.80336734  0.53330796  0.72036806     0.11300
H706        H  0.77962141  0.53197980  0.68726353     0.11300
H707        H  0.70972639  0.57430732  0.71398209     0.11400
H708        H  0.73379322  0.57542963  0.74717674     0.10200
C709        C  0.37992809  0.17716093  0.89337965    -0.03600
C710        C  0.35550611  0.16385697  0.88706487    -0.09300
C711        C  0.32997745  0.17705042  0.88879368    -0.17000
C712        C  0.32833937  0.20372967  0.89689274     0.25200
C713        C  0.35247640  0.21719606  0.90332635    -0.18600
C714        C  0.37816981  0.20398356  0.90159194    -0.07600
C715        C  0.30184781  0.21724012  0.89803988    -0.14000
C716        C  0.27924535  0.22777217  0.89788504    -0.13700
C717        C  0.25242995  0.24055626  0.89636573     0.25100
C718        C  0.24972619  0.26569552  0.88602889    -0.19100
C719        C  0.22382343  0.27807598  0.88403454    -0.07600
C720        C  0.20009664  0.26545207  0.89229323    -0.03700
C721        C  0.20291261  0.24012374  0.90264488    -0.09000
C722        C  0.22897857  0.22776337  0.90468081    -0.16600
H723        H  0.35609680  0.14323603  0.88063102     0.11500
H724        H  0.31149531  0.16646538  0.88368642     0.10800
H725        H  0.35145787  0.23792286  0.90955599     0.10700
H726        H  0.39659596  0.21475583  0.90654990     0.11300
H727        H  0.26765927  0.27571447  0.87942894     0.11300
H728        H  0.22238846  0.29752898  0.87590409     0.11300
H729        H  0.18504508  0.22994414  0.90917394     0.11400
H730        H  0.23082345  0.20821700  0.91265178     0.10200
C731        C  0.17603867  0.37734219  0.08403674    -0.03600
C732        C  0.18940772  0.39161568  0.06805557    -0.09300
C733        C  0.18094259  0.38827386  0.04773505    -0.17000
C734        C  0.15901205  0.37060267  0.04300186     0.25200
C735        C  0.14512746  0.35674872  0.05882705    -0.18600
C736        C  0.15351643  0.36016302  0.07925204    -0.07600
C737        C  0.15183035  0.36572582  0.02183704    -0.14000
C738        C  0.14707890  0.36067783  0.00404662    -0.13700
C739        C  0.14202791  0.35270935  0.98305933     0.25100
C740        C  0.12599801  0.32933188  0.97897281    -0.19100
C741        C  0.12211098  0.32043754  0.95881367    -0.07600
C742        C  0.13422569  0.33478064  0.94232600    -0.03700
C743        C  0.14995743  0.35856781  0.94648941    -0.09000
C744        C  0.15387077  0.36743858  0.96676232    -0.16600
H745        H  0.20674626  0.40509418  0.07121256     0.11500
H746        H  0.19187735  0.39908339  0.03566435     0.10800
H747        H  0.12816376  0.34292889  0.05534814     0.10700
H748        H  0.14287503  0.34885863  0.09120083     0.11300
H749        H  0.11679310  0.31770705  0.99141557     0.11300
H750        H  0.10986729  0.30205556  0.95617678     0.11300
H751        H  0.15960214  0.36999428  0.93414610     0.11400
H752        H  0.16642185  0.38552755  0.96973628     0.10200
C753        C  0.91492543  0.48602061  0.87850149    -0.03600
C754        C  0.90445450  0.46064437  0.88562670    -0.09300
C755        C  0.92075517  0.43666087  0.88482935    -0.17000
C756        C  0.94763537  0.43776599  0.87685329     0.25200
C757        C  0.95787563  0.46280366  0.86930989    -0.18600
C758        C  0.94170879  0.48669260  0.87010269    -0.07600
C759        C  0.96547335  0.41382158  0.87709269    -0.14000
C760        C  0.98298796  0.39600052  0.87716369    -0.13700
C761        C  0.00666726  0.37781419  0.87697611     0.25100
C762        C  0.03117637  0.38687509  0.86783473    -0.19100
C763        C  0.05493354  0.37053747  0.86861689    -0.07600
C764        C  0.05466267  0.34473504  0.87857423    -0.03700
C765        C  0.02978539  0.33538407  0.88732904    -0.09000
C766        C  0.00593232  0.35189271  0.88657622    -0.16600
H767        H  0.88394197  0.45945554  0.89218917     0.11500
H768        H  0.91258459  0.41741778  0.89074763     0.10800
H769        H  0.97862213  0.46398753  0.86312445     0.10700
H770        H  0.95043389  0.50583498  0.86445698     0.11300
H771        H  0.03208169  0.40687535  0.86040027     0.11300
H772        H  0.07368940  0.37837972  0.86168725     0.11300
H773        H  0.02894676  0.31568139  0.89516109     0.11400
H774        H  0.98711018  0.34466632  0.89377724     0.10200
C775        C  0.37988380  0.26361399  0.63444007    -0.03600
C776        C  0.35611493  0.27563598  0.64312293    -0.09300
C777        C  0.33029061  0.26318368  0.64087555    -0.17000
C778        C  0.32767158  0.23856375  0.62985228     0.25200
C779        C  0.35117524  0.22634347  0.62111758    -0.18600
C780        C  0.37718246  0.23877697  0.62341665    -0.07600
C781        C  0.30088276  0.22571588  0.62815274    -0.14000
C782        C  0.27818387  0.21536338  0.62814801    -0.13700
C783        C  0.25152272  0.20223423  0.62977972     0.25100
C784        C  0.24969514  0.17586303  0.63838717    -0.19100
C785        C  0.22402866  0.16309889  0.64067642    -0.07600
C786        C  0.19962886  0.17651358  0.63441668    -0.03700
C787        C  0.20156114  0.20305225  0.62573590    -0.09000
C788        C  0.22739922  0.21584047  0.62344280    -0.16600
H789        H  0.35745466  0.29469048  0.65177104     0.11500
H790        H  0.31233696  0.27275111  0.64781773     0.10800
H791        H  0.34941891  0.20719616  0.61261522     0.10700
H792        H  0.39508080  0.22907933  0.61652619     0.11300
H793        H  0.26814767  0.16517755  0.64345161     0.11300
H794        H  0.22332686  0.14268317  0.64744446     0.11300
H795        H  0.18317058  0.21389254  0.62077313     0.11400
H796        H  0.22854441  0.23634412  0.61684205     0.10200
C797        C  0.13400383  0.10683959  0.58448838    -0.03600
C798        C  0.15043178  0.08362493  0.58000238    -0.09300
C799        C  0.15403643  0.07493388  0.55966090    -0.17000
C800        C  0.14117901  0.08923990  0.54358710     0.25200
C801        C  0.12439998  0.11201076  0.54799163    -0.18600
C802        C  0.12083528  0.12075254  0.56824317    -0.07600
C803        C  0.14607915  0.08148619  0.52251709    -0.14000
C804        C  0.15102413  0.07631201  0.50476437    -0.13700
C805        C  0.15863360  0.07107491  0.48371133     0.25100
C806        C  0.14438098  0.08385156  0.46757545    -0.19100
C807        C  0.15306083  0.08003360  0.44725272    -0.07600
C808        C  0.17621304  0.06347838  0.44285487    -0.03700
C809        C  0.19001175  0.05032238  0.45915658    -0.09000
C810        C  0.18128138  0.05409789  0.47938589    -0.16600
H811        H  0.16087721  0.07252329  0.59214739     0.11500
H812        H  0.16716706  0.05732388  0.55645231     0.10800
H813        H  0.11438808  0.12330372  0.53572759     0.10700
H814        H  0.10800065  0.13866373  0.57114431     0.11300
H815        H  0.12686198  0.09712757  0.47072255     0.11300
H816        H  0.14205587  0.09048033  0.43505994     0.11300
H817        H  0.20787257  0.03739312  0.45632127     0.11400
H818        H  0.19252601  0.04413916  0.49169771     0.10200
C819        C  0.12208632  0.17079956  0.69845866    -0.03600
C820        C  0.10783151  0.19591747  0.70114644    -0.09300
C821        C  0.10793435  0.20941549  0.72010709    -0.17000
C822        C  0.12228716  0.19811286  0.73672340     0.25200
C823        C  0.13626185  0.17293596  0.73430488    -0.18600
C824        C  0.13615647  0.15933925  0.71530822    -0.07600
C825        C  0.12280082  0.21258638  0.75610809    -0.14000
C826        C  0.12284978  0.22511334  0.77215415    -0.13700
C827        C  0.12243876  0.23981458  0.79144512     0.25100
C828        C  0.11061999  0.22747951  0.80874056    -0.19100
C829        C  0.11035559  0.24142000  0.82752195    -0.07600
C830        C  0.12195611  0.26799721  0.82935730    -0.03700
C831        C  0.13362876  0.28037328  0.81187191    -0.09000
C832        C  0.13383709  0.26636378  0.79304334    -0.16600
H833        H  0.09681014  0.20534635  0.68851188     0.11500
H834        H  0.09699893  0.22883043  0.72174754     0.10800
H835        H  0.14743930  0.16393547  0.74704390     0.10700
H836        H  0.14741012  0.14011604  0.71372804     0.11300
H837        H  0.10172233  0.20698208  0.80774599     0.11300
H838        H  0.10130923  0.23121276  0.84067731     0.11300
H839        H  0.14281774  0.30073130  0.81278819     0.11400
H840        H  0.14303479  0.27617088  0.77977100     0.10200
C841        C  0.74759852  0.62899590  0.63387131    -0.03600
C842        C  0.73423789  0.65342702  0.64012757    -0.09300
C843        C  0.74704120  0.67905261  0.63779922    -0.17000
C844        C  0.77339108  0.68079589  0.62915971     0.25200
C845        C  0.78696869  0.65663867  0.62285011    -0.18600
C846        C  0.77413684  0.63083429  0.62518077    -0.07600
C847        C  0.78648534  0.70743744  0.62745507    -0.14000
C848        C  0.79663219  0.73021470  0.62745803    -0.13700
C849        C  0.80914085  0.75713193  0.62922005     0.25100
C850        C  0.83460541  0.75970141  0.63910449    -0.19100
C851        C  0.84668044  0.78565870  0.64156153    -0.07600
C852        C  0.83345346  0.80960481  0.63420729    -0.03700
C853        C  0.80780507  0.80693418  0.62427397    -0.09000
C854        C  0.79571894  0.78079295  0.62179623    -0.16600
H855        H  0.71383315  0.65278387  0.64691752     0.11500
H856        H  0.73639713  0.69754394  0.64284845     0.10800
H857        H  0.80746711  0.65773427  0.61623501     0.10700
H858        H  0.78493810  0.61240194  0.62024205     0.11300
H859        H  0.84510660  0.74160996  0.64502781     0.11300
H860        H  0.86641743  0.78694245  0.64931427     0.11300
H861        H  0.79716727  0.82496499  0.61842197     0.11400
H862        H  0.77589676  0.77905295  0.61420133     0.10200
C863        C  0.90268863  0.87492021  0.58450688    -0.03600
C864        C  0.88926919  0.88820809  0.56809570    -0.09300
C865        C  0.89825948  0.88432174  0.54795156    -0.17000
C866        C  0.92076748  0.86708010  0.54383008     0.25200
C867        C  0.93451802  0.85398827  0.56006212    -0.18600
C868        C  0.92558941  0.85793379  0.58030512    -0.07600
C869        C  0.92888865  0.86213549  0.52286705    -0.14000
C870        C  0.93425268  0.85745120  0.50512066    -0.13700
C871        C  0.93955279  0.85033224  0.48400495     0.25100
C872        C  0.95550266  0.82704769  0.47943930    -0.19100
C873        C  0.95924772  0.81883265  0.45910163    -0.07600
C874        C  0.94705499  0.83377152  0.44293240    -0.03700
C875        C  0.93155835  0.85754865  0.44758575    -0.09000
C876        C  0.92779681  0.86573601  0.46802427    -0.16600
H877        H  0.87159016  0.90143970  0.57078858     0.11500
H878        H  0.88739778  0.89450108  0.53554959     0.10800
H879        H  0.95190390  0.84047876  0.55705615     0.10700
H880        H  0.93625598  0.84733914  0.59259292     0.11300
H881        H  0.96466003  0.81492268  0.49163484     0.11300
H882        H  0.97135572  0.80045801  0.45607758     0.11300
H883        H  0.92190223  0.86944719  0.43549703     0.11400
H884        H  0.91533236  0.88377653  0.47137501     0.10200
C885        C  0.83706517  0.88821711  0.69778154    -0.03600
C886        C  0.84985826  0.87681890  0.71520344    -0.09300
C887        C  0.83629487  0.87687147  0.73420316    -0.17000
C888        C  0.80977353  0.88825976  0.73604465     0.25200
C889        C  0.79704531  0.89987176  0.71882501    -0.18600
C890        C  0.81055056  0.89988152  0.69986434    -0.07600
C891        C  0.79544646  0.88789766  0.75548522    -0.14000
C892        C  0.78315375  0.88784197  0.77162697    -0.13700
C893        C  0.76881888  0.88815170  0.79106532     0.25100
C894        C  0.74318327  0.87499547  0.79327413    -0.19100
C895        C  0.72960300  0.87502438  0.81227468    -0.07600
C896        C  0.74152274  0.88823184  0.82932931    -0.03700
C897        C  0.76715402  0.90160622  0.82687107    -0.09000
C898        C  0.78065060  0.90155293  0.80791371    -0.16600
H899        H  0.87020316  0.86762706  0.71410806     0.11500
H900        H  0.84640639  0.86784148  0.74741226     0.10800
H901        H  0.77655948  0.90876159  0.72001240     0.10700
H902        H  0.80005070  0.90874245  0.68676790     0.11300
H903        H  0.73377811  0.86455290  0.78035180     0.11300
H904        H  0.70997870  0.86446245  0.81367422     0.11300
H905        H  0.77696961  0.91191868  0.83967426     0.11400
H906        H  0.80043522  0.91182780  0.80644191     0.10200
C907        C  0.91381043  0.95443603  0.64797818    -0.03600
C908        C  0.93914982  0.95409098  0.65856532    -0.09300
C909        C  0.95593812  0.97754118  0.65918998    -0.17000
C910        C  0.94781511  0.00181426  0.64924281     0.25200
C911        C  0.92235747  0.00262792  0.63897948    -0.18600
C912        C  0.90538332  0.97909274  0.63839900    -0.07600
C913        C  0.96642609  0.02517856  0.64901796    -0.14000
C914        C  0.98432908  0.04261635  0.64916166    -0.13700
C915        C  0.00810568  0.06069248  0.64955387     0.25100
C916        C  0.00652237  0.08791349  0.64227740    -0.19100
C917        C  0.03024803  0.10459820  0.64174661    -0.07600
C918        C  0.05585392  0.09420142  0.64846774    -0.03700
C919        C  0.05702001  0.06703875  0.65615263    -0.09000
C920        C  0.03338874  0.05047750  0.65666309    -0.16600
H921        H  0.94627566  0.93549581  0.66613491     0.11500
H922        H  0.97555751  0.97656674  0.66715483     0.10800
H923        H  0.91585149  0.02125859  0.63114993     0.10700
H924        H  0.88607988  0.97996335  0.63004175     0.11300
H925        H  0.98708641  0.09608873  0.63671792     0.11300
H926        H  0.02866969  0.12538617  0.63573050     0.11300
H927        H  0.07635308  0.05833471  0.66145282     0.11400
H928        H  0.03495294  0.02948441  0.66231920     0.10200
loop_ 
_geom_bond_atom_site_label_1 
_geom_bond_atom_site_label_2 
_geom_bond_distance 
_geom_bond_site_symmetry_2 
_ccdc_geom_bond_type 
O1            V9   1.916       .  S
O1           C11   1.269       .  A
O2            V9   1.915       .  S
O2           C12   1.269       .  A
O3            V9   1.896       .  S
O3           C13   1.264       .  A
O4            V9   1.892       .  S
O4           C14   1.263       .  A
O5           V10   1.912       .  S
O5           C14   1.268       .  A
O6           V10   1.911       .  S
O6           C13   1.268       .  A
O7           V10   1.887       .  S
O7           C12   1.262       .  A
O8           V10   1.891       .  S
O8           C11   1.263       .  A
V9           V10   2.085       .  T
C11         C907   1.485       .  S
C12         C852   1.482       .  S
C13         C885   1.485       .  S
C14         C863   1.483       .  S
O15          V23   1.914       .  S
O15          C25   1.268       .  A
O16          V23   1.915       .  S
O16          C26   1.268       .  A
O17          V23   1.894       .  S
O17          C27   1.263       .  A
O18          V23   1.895       .  S
O18          C28   1.264       .  A
O19          V24   1.912       .  S
O19          C28   1.268       .  A
O20          V24   1.912       .  S
O20          C27   1.268       .  A
O21          V24   1.889       .  S
O21          C26   1.262       .  A
O22          V24   1.893       .  S
O22          C25   1.263       .  A
V23          V24   2.085       .  T
C25         C918   1.486       .  S
C26         C786   1.483       .  S
C27         C797   1.484       .  S
C28         C819   1.486       .  S
O29          V37   1.915       .  S
O29          C39   1.268       .  A
O30          V37   1.913       .  S
O30          C40   1.268       .  A
O31          V37   1.891       .  S
O31          C41   1.263       .  A
O32          V37   1.894       .  S
O32          C42   1.263       .  A
O33          V38   1.912       .  S
O33          C42   1.268       .  A
O34          V38   1.914       .  S
O34          C41   1.268       .  A
O35          V38   1.888       .  S
O35          C40   1.262       .  A
O36          V38   1.891       .  S
O36          C39   1.263       .  A
V37          V38   2.085       .  T
C39         C764   1.485       .  S
C40         C720   1.481       .  S
C41         C742   1.484       .  S
C42         C830   1.485       .  S
O43          V51   1.913       .  S
O43          C53   1.268       .  A
O44          V51   1.912       .  S
O44          C54   1.268       .  A
O45          V51   1.896       .  S
O45          C55   1.264       .  A
O46          V51   1.894       .  S
O46          C56   1.264       .  A
O47          V52   1.911       .  S
O47          C56   1.268       .  A
O48          V52   1.910       .  S
O48          C55   1.268       .  A
O49          V52   1.890       .  S
O49          C54   1.263       .  A
O50          V52   1.893       .  S
O50          C53   1.263       .  A
V51          V52   2.085       .  T
C53         C753   1.485       .  S
C54         C643   1.482       .  S
C55         C687   1.485       .  S
C56         C665   1.484       .  S
O57          V65   1.916       .  S
O57          C67   1.269       .  A
O58          V65   1.914       .  S
O58          C68   1.268       .  A
O59          V65   1.894       .  S
O59          C69   1.263       .  A
O60          V65   1.898       .  S
O60          C70   1.264       .  A
O61          V66   1.912       .  S
O61          C70   1.268       .  A
O62          V66   1.914       .  S
O62          C69   1.268       .  A
O63          V66   1.889       .  S
O63          C68   1.262       .  A
O64          V66   1.892       .  S
O64          C67   1.263       .  A
V65          V66   2.085       .  T
C67         C621   1.486       .  S
C68         C775   1.482       .  S
C69         C577   1.485       .  S
C70         C610   1.487       .  S
O71          V79   1.914       .  S
O71          C81   1.268       .  A
O72          V79   1.913       .  S
O72          C82   1.268       .  A
O73          V79   1.896       .  S
O73          C83   1.264       .  A
O74          V79   1.894       .  S
O74          C84   1.263       .  A
O75          V80   1.912       .  S
O75          C84   1.268       .  A
O76          V80   1.912       .  S
O76          C83   1.268       .  A
O77          V80   1.889       .  S
O77          C82   1.262       .  A
O78          V80   1.893       .  S
O78          C81   1.263       .  A
V79          V80   2.085       .  T
C81         C632   1.486       .  S
C82         C841   1.482       .  S
C83         C698   1.485       .  S
C84         C566   1.485       .  S
O85          V93   1.916       .  S
O85          C95   1.269       .  A
O86          V93   1.915       .  S
O86          C96   1.269       .  A
O87          V93   1.894       .  S
O87          C97   1.263       .  A
O88          V93   1.892       .  S
O88          C98   1.263       .  A
O89          V94   1.914       .  S
O89          C98   1.268       .  A
O90          V94   1.913       .  S
O90          C97   1.268       .  A
O91          V94   1.887       .  S
O91          C96   1.262       .  A
O92          V94   1.891       .  S
O92          C95   1.263       .  A
V93          V94   2.085       .  T
C95         C533   1.485       .  S
C96         C654   1.483       .  S
C97         C896   1.485       .  S
C98         C511   1.484       .  S
O99         V107   1.913       .  S
O99         C109   1.268       .  A
O100        V107   1.913       .  S
O100        C110   1.268       .  A
O101        V107   1.895       .  S
O101        C111   1.264       .  A
O102        V107   1.898       .  S
O102        C112   1.264       .  A
O103        V108   1.912       .  S
O103        C112   1.268       .  A
O104        V108   1.913       .  S
O104        C111   1.268       .  A
O105        V108   1.889       .  S
O105        C110   1.262       .  A
O106        V108   1.894       .  S
O106        C109   1.263       .  A
V107        V108   2.085       .  T
C109        C544   1.485       .  S
C110        C709   1.482       .  S
C111        C500   1.486       .  S
C112        C599   1.487       .  S
O113        V121   1.914       .  S
O113        C123   1.268       .  A
O114        V121   1.914       .  S
O114        C124   1.268       .  A
O115        V121   1.889       .  S
O115        C125   1.262       .  A
O116        V121   1.893       .  S
O116        C126   1.263       .  A
O117        V122   1.916       .  S
O117        C126   1.269       .  A
O118        V122   1.917       .  S
O118        C125   1.269       .  A
O119        V122   1.890       .  S
O119        C124   1.262       .  A
O120        V122   1.893       .  S
O120        C123   1.263       .  A
V121        V122   2.085       .  T
C123        C467   1.485       .  S
C124        C423   1.483       .  S
C125        C588   1.485       .  S
C126        C445   1.487       .  S
O127        V135   1.914       .  S
O127        C137   1.268       .  A
O128        V135   1.913       .  S
O128        C138   1.268       .  A
O129        V135   1.895       .  S
O129        C139   1.264       .  A
O130        V135   1.894       .  S
O130        C140   1.263       .  A
O131        V136   1.913       .  S
O131        C140   1.268       .  A
O132        V136   1.912       .  S
O132        C139   1.268       .  A
O133        V136   1.889       .  S
O133        C138   1.262       .  A
O134        V136   1.893       .  S
O134        C137   1.263       .  A
V135        V136   2.085       .  T
C137        C478   1.485       .  S
C138        C379   1.482       .  S
C139        C412   1.486       .  S
C140        C555   1.484       .  S
O141        V149   1.917       .  S
O141        C151   1.269   1_655  A
O142        V149   1.916       .  S
O142        C152   1.269       .  A
O143        V149   1.892       .  S
O143        C153   1.263       .  A
O144        V149   1.890       .  S
O144        C154   1.262       .  A
O145        V150   1.914       .  S
O145        C154   1.269       .  A
O146        V150   1.914       .  S
O146        C153   1.269       .  A
O147        V150   1.888       .  S
O147        C152   1.262       .  A
O148        V150   1.892       .  S
O148        C151   1.263   1_655  A
V149        V150   2.085       .  T
C151        C357   1.486       .  S
C152        C313   1.483       .  S
C153        C346   1.485       .  S
C154        C676   1.484       .  S
O155        V163   1.916       .  S
O155        C165   1.269       .  A
O156        V163   1.915       .  S
O156        C166   1.269       .  A
O157        V163   1.891       .  S
O157        C167   1.262       .  A
O158        V163   1.894       .  S
O158        C168   1.263       .  A
O159        V164   1.914       .  S
O159        C168   1.268       .  A
O160        V164   1.914       .  S
O160        C167   1.268       .  A
O161        V164   1.888       .  S
O161        C166   1.262       .  A
O162        V164   1.891       .  S
O162        C165   1.263       .  A
V163        V164   2.085       .  T
C165        C368   1.486       .  S
C166        C302   1.483       .  S
C167        C731   1.483       .  S
C168        C456   1.486       .  S
O169        V177   1.912       .  S
O169        C179   1.268       .  A
O170        V177   1.912       .  S
O170        C180   1.268       .  A
O171        V177   1.893       .  S
O171        C181   1.263       .  A
O172        V177   1.894       .  S
O172        C182   1.263       .  A
O173        V178   1.911       .  S
O173        C182   1.268       .  A
O174        V178   1.913       .  S
O174        C181   1.268       .  A
O175        V178   1.889       .  S
O175        C180   1.262       .  A
O176        V178   1.892       .  S
O176        C179   1.263       .  A
V177        V178   2.085       .  T
C179        C269   1.484   1_545  S
C180        C291   1.481       .  S
C181        C489   1.484       .  S
C182        C247   1.484       .  S
O183        V191   1.911       .  S
O183        C193   1.268       .  A
O184        V191   1.910       .  S
O184        C194   1.267       .  A
O185        V191   1.894       .  S
O185        C195   1.263       .  A
O186        V191   1.893       .  S
O186        C196   1.263       .  A
O187        V192   1.913       .  S
O187        C196   1.268       .  A
O188        V192   1.913       .  S
O188        C195   1.268       .  A
O189        V192   1.892       .  S
O189        C194   1.263       .  A
O190        V192   1.894       .  S
O190        C193   1.264       .  A
V191        V192   2.085       .  T
C193        C280   1.484       .  S
C194        C324   1.482       .  S
C195        C401   1.485       .  S
C196        C522   1.485       .  S
O197        V205   1.916       .  S
O197        C207   1.269       .  A
O198        V205   1.915       .  S
O198        C208   1.269       .  A
O199        V205   1.891       .  S
O199        C209   1.262       .  A
O200        V205   1.890       .  S
O200        C210   1.262       .  A
O201        V206   1.914       .  S
O201        C210   1.269       .  A
O202        V206   1.914       .  S
O202        C209   1.268       .  A
O203        V206   1.887       .  S
O203        C208   1.262       .  A
O204        V206   1.889       .  S
O204        C207   1.262       .  A
V205        V206   2.085       .  T
C207        C225   1.485   1_655  S
C208        C390   1.482       .  S
C209        C335   1.484       .  S
C210        C874   1.483       .  S
O211        V219   1.913       .  S
O211        C221   1.268       .  A
O212        V219   1.913       .  S
O212        C222   1.268       .  A
O213        V219   1.893       .  S
O213        C223   1.263       .  A
O214        V219   1.894       .  S
O214        C224   1.263       .  A
O215        V220   1.911       .  S
O215        C224   1.268       .  A
O216        V220   1.912       .  S
O216        C223   1.268       .  A
O217        V220   1.891       .  S
O217        C222   1.263       .  A
O218        V220   1.893       .  S
O218        C221   1.263       .  A
V219        V220   2.085       .  T
C221        C236   1.485   1_545  S
C222        C434   1.483       .  S
C223        C808   1.484       .  S
C224        C258   1.484       .  S
C225        C226   1.408       .  A
C225        C230   1.408       .  A
C226        C227   1.405       .  A
C226        H239   1.083       .  S
C227        C228   1.403       .  A
C227        H240   1.083       .  S
C228        C229   1.398       .  A
C228        C231   1.445       .  S
C229        C230   1.396       .  A
C229        H241   1.084       .  S
C230        H242   1.083       .  S
C231        C232   1.209       .  T
C232        C233   1.445       .  S
C233        C234   1.399       .  A
C233        C238   1.402       .  A
C234        C235   1.397       .  A
C234        H243   1.084       .  S
C235        C236   1.408       .  A
C235        H244   1.083   1_565  S
C236        C237   1.408       .  A
C237        C238   1.404       .  A
C237        H245   1.083       .  S
C238        H246   1.083       .  S
C247        C248   1.408       .  A
C247        C252   1.407       .  A
C248        C249   1.398       .  A
C248        H261   1.083       .  S
C249        C250   1.399       .  A
C249        H262   1.084       .  S
C250        C251   1.402       .  A
C250        C253   1.444       .  S
C251        C252   1.403       .  A
C251        H263   1.083       .  S
C252        H264   1.083       .  S
C253        C254   1.208       .  T
C254        C255   1.444       .  S
C255        C256   1.399       .  A
C255        C260   1.402       .  A
C256        C257   1.398       .  A
C256        H265   1.084       .  S
C257        C258   1.408       .  A
C257        H266   1.083       .  S
C258        C259   1.407       .  A
C259        C260   1.402       .  A
C259        H267   1.083       .  S
C260        H268   1.083       .  S
C269        C270   1.408       .  A
C269        C274   1.408       .  A
C270        C271   1.396       .  A
C270        H283   1.083   1_565  S
C271        C272   1.398       .  A
C271        H284   1.084       .  S
C272        C273   1.402       .  A
C272        C275   1.444       .  S
C273        C274   1.404       .  A
C273        H285   1.083       .  S
C274        H286   1.083       .  S
C275        C276   1.209       .  T
C276        C277   1.444       .  S
C277        C278   1.402       .  A
C277        C282   1.399       .  A
C278        C279   1.403       .  A
C278        H287   1.083       .  S
C279        C280   1.408       .  A
C279        H288   1.083       .  S
C280        C281   1.408       .  A
C281        C282   1.397       .  A
C281        H289   1.083       .  S
C282        H290   1.084       .  S
C291        C292   1.406       .  A
C291        C296   1.408       .  A
C292        C293   1.402       .  A
C292        H305   1.083       .  S
C293        C294   1.402       .  A
C293        H306   1.083       .  S
C294        C295   1.398       .  A
C294        C297   1.441       .  S
C295        C296   1.396       .  A
C295        H307   1.084       .  S
C296        H308   1.083       .  S
C297        C298   1.207       .  T
C298        C299   1.442       .  S
C299        C300   1.402       .  A
C299        C304   1.397       .  A
C300        C301   1.403       .  A
C300        H309   1.083       .  S
C301        C302   1.406       .  A
C301        H310   1.083       .  S
C302        C303   1.409       .  A
C303        C304   1.396       .  A
C303        H311   1.083       .  S
C304        H312   1.084       .  S
C313        C314   1.409       .  A
C313        C318   1.406       .  A
C314        C315   1.396       .  A
C314        H327   1.083       .  S
C315        C316   1.397       .  A
C315        H328   1.084       .  S
C316        C317   1.403       .  A
C316        C319   1.442       .  S
C317        C318   1.403       .  A
C317        H329   1.083       .  S
C318        H330   1.083       .  S
C319        C320   1.207       .  T
C320        C321   1.442       .  S
C321        C322   1.398       .  A
C321        C326   1.402       .  A
C322        C323   1.396       .  A
C322        H331   1.084       .  S
C323        C324   1.408       .  A
C323        H332   1.083       .  S
C324        C325   1.407       .  A
C325        C326   1.403       .  A
C325        H333   1.083       .  S
C326        H334   1.083       .  S
C335        C336   1.409       .  A
C335        C340   1.407       .  A
C336        C337   1.397       .  A
C336        H349   1.083       .  S
C337        C338   1.398       .  A
C337        H350   1.084       .  S
C338        C339   1.403       .  A
C338        C341   1.444       .  S
C339        C340   1.403       .  A
C339        H351   1.083       .  S
C340        H352   1.083       .  S
C341        C342   1.209       .  T
C342        C343   1.445       .  S
C343        C344   1.398       .  A
C343        C348   1.403       .  A
C344        C345   1.398       .  A
C344        H353   1.084       .  S
C345        C346   1.409       .  A
C345        H354   1.083       .  S
C346        C347   1.407       .  A
C347        C348   1.403       .  A
C347        H355   1.083       .  S
C348        H356   1.083       .  S
C357        C358   1.408       .  A
C357        C362   1.408       .  A
C358        C359   1.405       .  A
C358        H371   1.083       .  S
C359        C360   1.403       .  A
C359        H372   1.083       .  S
C360        C361   1.399       .  A
C360        C363   1.447       .  S
C361        C362   1.397       .  A
C361        H373   1.084       .  S
C362        H374   1.083       .  S
C363        C364   1.211       .  T
C364        C365   1.447       .  S
C365        C366   1.399       .  A
C365        C370   1.403       .  A
C366        C367   1.397       .  A
C366        H375   1.084       .  S
C367        C368   1.408       .  A
C367        H376   1.083       .  S
C368        C369   1.408       .  A
C369        C370   1.406       .  A
C369        H377   1.083       .  S
C370        H378   1.083       .  S
C379        C380   1.407       .  A
C379        C384   1.408       .  A
C380        C381   1.403       .  A
C380        H393   1.083       .  S
C381        C382   1.402       .  A
C381        H394   1.083       .  S
C382        C383   1.397       .  A
C382        C385   1.441       .  S
C383        C384   1.396       .  A
C383        H395   1.084       .  S
C384        H396   1.083       .  S
C385        C386   1.207       .  T
C386        C387   1.441       .  S
C387        C388   1.402       .  A
C387        C392   1.397       .  A
C388        C389   1.403       .  A
C388        H397   1.083       .  S
C389        C390   1.406       .  A
C389        H398   1.083       .  S
C390        C391   1.409       .  A
C391        C392   1.396       .  A
C391        H399   1.083       .  S
C392        H400   1.084       .  S
C401        C402   1.407       .  A
C401        C406   1.408       .  A
C402        C403   1.404       .  A
C402        H415   1.083       .  S
C403        C404   1.403       .  A
C403        H416   1.083       .  S
C404        C405   1.398       .  A
C404        C407   1.445       .  S
C405        C406   1.398       .  A
C405        H417   1.084       .  S
C406        H418   1.083       .  S
C407        C408   1.209       .  T
C408        C409   1.445       .  S
C409        C410   1.402       .  A
C409        C414   1.399       .  A
C410        C411   1.403       .  A
C410        H419   1.083       .  S
C411        C412   1.407       .  A
C411        H420   1.083       .  S
C412        C413   1.409       .  A
C413        C414   1.399       .  A
C413        H421   1.083       .  S
C414        H422   1.083       .  S
C423        C424   1.409       .  A
C423        C428   1.406       .  A
C424        C425   1.397       .  A
C424        H437   1.083       .  S
C425        C426   1.398       .  A
C425        H438   1.084       .  S
C426        C427   1.402       .  A
C426        C429   1.443       .  S
C427        C428   1.403       .  A
C427        H439   1.083       .  S
C428        H440   1.083       .  S
C429        C430   1.208       .  T
C430        C431   1.443       .  S
C431        C432   1.398       .  A
C431        C436   1.402       .  A
C432        C433   1.396       .  A
C432        H441   1.084       .  S
C433        C434   1.408       .  A
C433        H442   1.083       .  S
C434        C435   1.407       .  A
C435        C436   1.403       .  A
C435        H443   1.083       .  S
C436        H444   1.083       .  S
C445        C446   1.409       .  A
C445        C450   1.407       .  A
C446        C447   1.399       .  A
C446        H459   1.083       .  S
C447        C448   1.399       .  A
C447        H460   1.084       .  S
C448        C449   1.403       .  A
C448        C451   1.447       .  S
C449        C450   1.404       .  A
C449        H461   1.083       .  S
C450        H462   1.083       .  S
C451        C452   1.210       .  T
C452        C453   1.447       .  S
C453        C454   1.399       .  A
C453        C458   1.403       .  A
C454        C455   1.399       .  A
C454        H463   1.084       .  S
C455        C456   1.409       .  A
C455        H464   1.083       .  S
C456        C457   1.407       .  A
C457        C458   1.404       .  A
C457        H465   1.083       .  S
C458        H466   1.083       .  S
C467        C468   1.408       .  A
C467        C472   1.408       .  A
C468        C469   1.404       .  A
C468        H481   1.083       .  S
C469        C470   1.403       .  A
C469        H482   1.083       .  S
C470        C471   1.399       .  A
C470        C473   1.446       .  S
C471        C472   1.397       .  A
C471        H483   1.084       .  S
C472        H484   1.083       .  S
C473        C474   1.210       .  T
C474        C475   1.446       .  S
C475        C476   1.399       .  A
C475        C480   1.403       .  A
C476        C477   1.397       .  A
C476        H485   1.084       .  S
C477        C478   1.408       .  A
C477        H486   1.083       .  S
C478        C479   1.408       .  A
C479        C480   1.404       .  A
C479        H487   1.083       .  S
C480        H488   1.083       .  S
C489        C490   1.407       .  A
C489        C494   1.408       .  A
C490        C491   1.403       .  A
C490        H503   1.083       .  S
C491        C492   1.403       .  A
C491        H504   1.083       .  S
C492        C493   1.399       .  A
C492        C495   1.446       .  S
C493        C494   1.398       .  A
C493        H505   1.084       .  S
C494        H506   1.083       .  S
C495        C496   1.210       .  T
C496        C497   1.446   1_554  S
C497        C498   1.403       .  A
C497        C502   1.399       .  A
C498        C499   1.404       .  A
C498        H507   1.083       .  S
C499        C500   1.407       .  A
C499        H508   1.083       .  S
C500        C501   1.408       .  A
C501        C502   1.398       .  A
C501        H509   1.083       .  S
C502        H510   1.084       .  S
C511        C512   1.409       .  A
C511        C516   1.407       .  A
C512        C513   1.398       .  A
C512        H525   1.083       .  S
C513        C514   1.398       .  A
C513        H526   1.084       .  S
C514        C515   1.403       .  A
C514        C517   1.445   1_556  S
C515        C516   1.403       .  A
C515        H527   1.083       .  S
C516        H528   1.083       .  S
C517        C518   1.209       .  T
C518        C519   1.445       .  S
C519        C520   1.398       .  A
C519        C524   1.403       .  A
C520        C521   1.398       .  A
C520        H529   1.084       .  S
C521        C522   1.408       .  A
C521        H530   1.083       .  S
C522        C523   1.407       .  A
C523        C524   1.403       .  A
C523        H531   1.083       .  S
C524        H532   1.083       .  S
C533        C534   1.408       .  A
C533        C538   1.407       .  A
C534        C535   1.397       .  A
C534        H547   1.083       .  S
C535        C536   1.399   1_565  A
C535        H548   1.083       .  S
C536        C537   1.403       .  A
C536        C539   1.446       .  S
C537        C538   1.405   1_545  A
C537        H549   1.083       .  S
C538        H550   1.083       .  S
C539        C540   1.210       .  T
C540        C541   1.446       .  S
C541        C542   1.402       .  A
C541        C546   1.399       .  A
C542        C543   1.404       .  A
C542        H551   1.083       .  S
C543        C544   1.408       .  A
C543        H552   1.083       .  S
C544        C545   1.408       .  A
C545        C546   1.398       .  A
C545        H553   1.083       .  S
C546        H554   1.084       .  S
C555        C556   1.408       .  A
C555        C560   1.407       .  A
C556        C557   1.398       .  A
C556        H569   1.083       .  S
C557        C558   1.399       .  A
C557        H570   1.084       .  S
C558        C559   1.403       .  A
C558        C561   1.445       .  S
C559        C560   1.403       .  A
C559        H571   1.083       .  S
C560        H572   1.083       .  S
C561        C562   1.209       .  T
C562        C563   1.445       .  S
C563        C564   1.399       .  A
C563        C568   1.403       .  A
C564        C565   1.398       .  A
C564        H573   1.084       .  S
C565        C566   1.408       .  A
C565        H574   1.083       .  S
C566        C567   1.407       .  A
C567        C568   1.403       .  A
C567        H575   1.083       .  S
C568        H576   1.083       .  S
C577        C578   1.408       .  A
C577        C582   1.407       .  A
C578        C579   1.398       .  A
C578        H591   1.083       .  S
C579        C580   1.398       .  A
C579        H592   1.084       .  S
C580        C581   1.403       .  A
C580        C583   1.445       .  S
C581        C582   1.404       .  A
C581        H593   1.083       .  S
C582        H594   1.083       .  S
C583        C584   1.209       .  T
C584        C585   1.445       .  S
C585        C586   1.398       .  A
C585        C590   1.404       .  A
C586        C587   1.397       .  A
C586        H595   1.084       .  S
C587        C588   1.409       .  A
C587        H596   1.083       .  S
C588        C589   1.407       .  A
C589        C590   1.404       .  A
C589        H597   1.083       .  S
C590        H598   1.083       .  S
C599        C600   1.409       .  A
C599        C604   1.407       .  A
C600        C601   1.400       .  A
C600        H613   1.083       .  S
C601        C602   1.400       .  A
C601        H614   1.083       .  S
C602        C603   1.402       .  A
C602        C605   1.447       .  S
C603        C604   1.403       .  A
C603        H615   1.083       .  S
C604        H616   1.083       .  S
C605        C606   1.211       .  T
C606        C607   1.448       .  S
C607        C608   1.402       .  A
C607        C612   1.400       .  A
C608        C609   1.403       .  A
C608        H617   1.083       .  S
C609        C610   1.407       .  A
C609        H618   1.083       .  S
C610        C611   1.409       .  A
C611        C612   1.400       .  A
C611        H619   1.083       .  S
C612        H620   1.083       .  S
C621        C622   1.408       .  A
C621        C626   1.408       .  A
C622        C623   1.405       .  A
C622        H635   1.083       .  S
C623        C624   1.403       .  A
C623        H636   1.083       .  S
C624        C625   1.399       .  A
C624        C627   1.446       .  S
C625        C626   1.397       .  A
C625        H637   1.084       .  S
C626        H638   1.083       .  S
C627        C628   1.210       .  T
C628        C629   1.446       .  S
C629        C630   1.399       .  A
C629        C634   1.403       .  A
C630        C631   1.397       .  A
C630        H639   1.084       .  S
C631        C632   1.408       .  A
C631        H640   1.083       .  S
C632        C633   1.408       .  A
C633        C634   1.405       .  A
C633        H641   1.083       .  S
C634        H642   1.083       .  S
C643        C644   1.408       .  A
C643        C648   1.407       .  A
C644        C645   1.396       .  A
C644        H657   1.083       .  S
C645        C646   1.397       .  A
C645        H658   1.084       .  S
C646        C647   1.402       .  A
C646        C649   1.441       .  S
C647        C648   1.403       .  A
C647        H659   1.083       .  S
C648        H660   1.083       .  S
C649        C650   1.207       .  T
C650        C651   1.442       .  S
C651        C652   1.397       .  A
C651        C656   1.403       .  A
C652        C653   1.395       .  A
C652        H661   1.084       .  S
C653        C654   1.409       .  A
C653        H662   1.083       .  S
C654        C655   1.406       .  A
C655        C656   1.403       .  A
C655        H663   1.083       .  S
C656        H664   1.083       .  S
C665        C666   1.408       .  A
C665        C670   1.407       .  A
C666        C667   1.398       .  A
C666        H679   1.083       .  S
C667        C668   1.398       .  A
C667        H680   1.084       .  S
C668        C669   1.402       .  A
C668        C671   1.444   1_556  S
C669        C670   1.403       .  A
C669        H681   1.083       .  S
C670        H682   1.083       .  S
C671        C672   1.209       .  T
C672        C673   1.444       .  S
C673        C674   1.398       .  A
C673        C678   1.403       .  A
C674        C675   1.398       .  A
C674        H683   1.084       .  S
C675        C676   1.409       .  A
C675        H684   1.083       .  S
C676        C677   1.406       .  A
C677        C678   1.403       .  A
C677        H685   1.083       .  S
C678        H686   1.083       .  S
C687        C688   1.408       .  A
C687        C692   1.407       .  A
C688        C689   1.399       .  A
C688        H701   1.083       .  S
C689        C690   1.399       .  A
C689        H702   1.084       .  S
C690        C691   1.402       .  A
C690        C693   1.445       .  S
C691        C692   1.403       .  A
C691        H703   1.083       .  S
C692        H704   1.083       .  S
C693        C694   1.209       .  T
C694        C695   1.445       .  S
C695        C696   1.399       .  A
C695        C700   1.402       .  A
C696        C697   1.399       .  A
C696        H705   1.083       .  S
C697        C698   1.409       .  A
C697        H706   1.083       .  S
C698        C699   1.407       .  A
C699        C700   1.403       .  A
C699        H707   1.083       .  S
C700        H708   1.083       .  S
C709        C710   1.408       .  A
C709        C714   1.407       .  A
C710        C711   1.395       .  A
C710        H723   1.083       .  S
C711        C712   1.397       .  A
C711        H724   1.084       .  S
C712        C713   1.402       .  A
C712        C715   1.441       .  S
C713        C714   1.403       .  A
C713        H725   1.083       .  S
C714        H726   1.083       .  S
C715        C716   1.207       .  T
C716        C717   1.441       .  S
C717        C718   1.397       .  A
C717        C722   1.402       .  A
C718        C719   1.396       .  A
C718        H727   1.084       .  S
C719        C720   1.408       .  A
C719        H728   1.083       .  S
C720        C721   1.406       .  A
C721        C722   1.403       .  A
C721        H729   1.083       .  S
C722        H730   1.083       .  S
C731        C732   1.408       .  A
C731        C736   1.406       .  A
C732        C733   1.397       .  A
C732        H745   1.083       .  S
C733        C734   1.398       .  A
C733        H746   1.084       .  S
C734        C735   1.403       .  A
C734        C737   1.443       .  S
C735        C736   1.403       .  A
C735        H747   1.083       .  S
C736        H748   1.083       .  S
C737        C738   1.208       .  T
C738        C739   1.443   1_554  S
C739        C740   1.398       .  A
C739        C744   1.403       .  A
C740        C741   1.397       .  A
C740        H749   1.084       .  S
C741        C742   1.408       .  A
C741        H750   1.083       .  S
C742        C743   1.407       .  A
C743        C744   1.403       .  A
C743        H751   1.083       .  S
C744        H752   1.083       .  S
C753        C754   1.408       .  A
C753        C758   1.408       .  A
C754        C755   1.404       .  A
C754        H767   1.083       .  S
C755        C756   1.402       .  A
C755        H768   1.083       .  S
C756        C757   1.399       .  A
C756        C759   1.445       .  S
C757        C758   1.397       .  A
C757        H769   1.084       .  S
C758        H770   1.083       .  S
C759        C760   1.209       .  T
C760        C761   1.445   1_655  S
C761        C762   1.398       .  A
C761        C766   1.403       .  A
C762        C763   1.396       .  A
C762        H771   1.084       .  S
C763        C764   1.408       .  A
C763        H772   1.083       .  S
C764        C765   1.408       .  A
C765        C766   1.405       .  A
C765        H773   1.083       .  S
C766        H774   1.083   1_455  S
C775        C776   1.408       .  A
C775        C780   1.407       .  A
C776        C777   1.396       .  A
C776        H789   1.083       .  S
C777        C778   1.397       .  A
C777        H790   1.084       .  S
C778        C779   1.403       .  A
C778        C781   1.443       .  S
C779        C780   1.404       .  A
C779        H791   1.083       .  S
C780        H792   1.083       .  S
C781        C782   1.208       .  T
C782        C783   1.443       .  S
C783        C784   1.397       .  A
C783        C788   1.403       .  A
C784        C785   1.396       .  A
C784        H793   1.084       .  S
C785        C786   1.408       .  A
C785        H794   1.083       .  S
C786        C787   1.407       .  A
C787        C788   1.404       .  A
C787        H795   1.083       .  S
C788        H796   1.083       .  S
C797        C798   1.407       .  A
C797        C802   1.408       .  A
C798        C799   1.403       .  A
C798        H811   1.083       .  S
C799        C800   1.402       .  A
C799        H812   1.083       .  S
C800        C801   1.399       .  A
C800        C803   1.444       .  S
C801        C802   1.398       .  A
C801        H813   1.084       .  S
C802        H814   1.083       .  S
C803        C804   1.209       .  T
C804        C805   1.444       .  S
C805        C806   1.402       .  A
C805        C810   1.399       .  A
C806        C807   1.403       .  A
C806        H815   1.083       .  S
C807        C808   1.407       .  A
C807        H816   1.083       .  S
C808        C809   1.408       .  A
C809        C810   1.398       .  A
C809        H817   1.083       .  S
C810        H818   1.084       .  S
C819        C820   1.409       .  A
C819        C824   1.407       .  A
C820        C821   1.399       .  A
C820        H833   1.083       .  S
C821        C822   1.399       .  A
C821        H834   1.084       .  S
C822        C823   1.402       .  A
C822        C825   1.446       .  S
C823        C824   1.403       .  A
C823        H835   1.083       .  S
C824        H836   1.083       .  S
C825        C826   1.210       .  T
C826        C827   1.446       .  S
C827        C828   1.399       .  A
C827        C832   1.402       .  A
C828        C829   1.399       .  A
C828        H837   1.084       .  S
C829        C830   1.409       .  A
C829        H838   1.083       .  S
C830        C831   1.407       .  A
C831        C832   1.403       .  A
C831        H839   1.083       .  S
C832        H840   1.083       .  S
C841        C842   1.408       .  A
C841        C846   1.407       .  A
C842        C843   1.395       .  A
C842        H855   1.083       .  S
C843        C844   1.397       .  A
C843        H856   1.084       .  S
C844        C845   1.403       .  A
C844        C847   1.441       .  S
C845        C846   1.403       .  A
C845        H857   1.083       .  S
C846        H858   1.083       .  S
C847        C848   1.207       .  T
C848        C849   1.441       .  S
C849        C850   1.397       .  A
C849        C854   1.403       .  A
C850        C851   1.395       .  A
C850        H859   1.084       .  S
C851        C852   1.408       .  A
C851        H860   1.083       .  S
C852        C853   1.407       .  A
C853        C854   1.403       .  A
C853        H861   1.083       .  S
C854        H862   1.083       .  S
C863        C864   1.408       .  A
C863        C868   1.407       .  A
C864        C865   1.397       .  A
C864        H877   1.083       .  S
C865        C866   1.398       .  A
C865        H878   1.084       .  S
C866        C867   1.402       .  A
C866        C869   1.443       .  S
C867        C868   1.403       .  A
C867        H879   1.083       .  S
C868        H880   1.083       .  S
C869        C870   1.208       .  T
C870        C871   1.443       .  S
C871        C872   1.398       .  A
C871        C876   1.403       .  A
C872        C873   1.397       .  A
C872        H881   1.084       .  S
C873        C874   1.409       .  A
C873        H882   1.083       .  S
C874        C875   1.407       .  A
C875        C876   1.403       .  A
C875        H883   1.083       .  S
C876        H884   1.083       .  S
C885        C886   1.407       .  A
C885        C890   1.409       .  A
C886        C887   1.403       .  A
C886        H899   1.083       .  S
C887        C888   1.402       .  A
C887        H900   1.083       .  S
C888        C889   1.399       .  A
C888        C891   1.446       .  S
C889        C890   1.399       .  A
C889        H901   1.084       .  S
C890        H902   1.083       .  S
C891        C892   1.210       .  T
C892        C893   1.446       .  S
C893        C894   1.402       .  A
C893        C898   1.399       .  A
C894        C895   1.403       .  A
C894        H903   1.083       .  S
C895        C896   1.407       .  A
C895        H904   1.083       .  S
C896        C897   1.409       .  A
C897        C898   1.399       .  A
C897        H905   1.083       .  S
C898        H906   1.084       .  S
C907        C908   1.408       .  A
C907        C912   1.408       .  A
C908        C909   1.397       .  A
C908        H921   1.083       .  S
C909        C910   1.399   1_565  A
C909        H922   1.084       .  S
C910        C911   1.403       .  A
C910        C913   1.446       .  S
C911        C912   1.405   1_545  A
C911        H923   1.083       .  S
C912        H924   1.083       .  S
C913        C914   1.210       .  T
C914        C915   1.446   1_655  S
C915        C916   1.403       .  A
C915        C920   1.399       .  A
C916        C917   1.405       .  A
C916        H925   1.083   1_455  S
C917        C918   1.408       .  A
C917        H926   1.083       .  S
C918        C919   1.408       .  A
C919        C920   1.397       .  A
C919        H927   1.083       .  S
C920        H928   1.084       .  S
