geometry optimzed in LAMMPS
_audit_creation_date              2020-12-01 
_audit_creation_method            'lammps2cif' 
_symmetry_space_group_name_H-M    'P1' 
_symmetry_Int_Tables_number       1 
_symmetry_cell_setting            triclinic 
loop_ 
_symmetry_equiv_pos_as_xyz 
  x,y,z 
_cell_length_a                    33.32830755 
_cell_length_b                    33.328827100535754 
_cell_length_c                    33.32194241629883 
_cell_angle_alpha                 90.30550941749586 
_cell_angle_beta                  90.0420817993163 
_cell_angle_gamma                 90.63621840275569 
loop_ 
_atom_site_label 
_atom_site_type_symbol 
_atom_site_fract_x 
_atom_site_fract_y 
_atom_site_fract_z 
_atom_site_charge 
N1          N  0.95420821  0.04179039  0.50201422    -0.35800
N2          N  0.04176513  0.04426813  0.49580848    -0.56300
N3          N  0.04254455  0.95671585  0.50042477    -0.35800
N4          N  0.95506985  0.95440236  0.49928865    -0.56300
C5          C  0.96074110  0.08053337  0.49156062     0.27800
C6          C  0.91499210  0.03340996  0.49479182     0.27800
C7          C  0.08177342  0.96466820  0.49298568     0.27800
C8          C  0.03600316  0.91724769  0.49254610     0.27800
C9          C  0.03450551  0.08362856  0.50257184     0.36400
C10         C  0.08111727  0.03874929  0.50393610     0.36400
C11         C  0.91556055  0.95976522  0.50662648     0.36400
C12         C  0.96197884  0.91477142  0.50397028     0.36400
C13         C  0.92533266  0.09679349  0.47742823    -0.21000
C14         C  0.89643668  0.06716669  0.47973456    -0.21000
C15         C  0.10037258  0.92980667  0.48025408    -0.21000
C16         C  0.07156028  0.89993811  0.48002984    -0.21000
C17         C  0.06936915  0.10319989  0.51469122    -0.22100
C18         C  0.09882257  0.07478323  0.51574973    -0.22100
C19         C  0.89732482  0.92339047  0.51583973    -0.22100
C20         C  0.92666068  0.89489210  0.51398229    -0.22100
C21         C  0.99706096  0.10234567  0.49688974    -0.17500
C22         C  0.89515991  0.99647678  0.50231603    -0.17500
C23         C  0.99936303  0.89594842  0.49804042    -0.17400
C24         C  0.10164592  0.00200399  0.49945349    -0.17400
H25         H  0.92068447  0.12695659  0.46664154     0.15500
H26         H  0.86532838  0.07008502  0.47099213     0.15500
H27         H  0.13151275  0.92614376  0.47197705     0.15500
H28         H  0.07635520  0.86893904  0.47165636     0.15500
H29         H  0.07311769  0.13456514  0.52254382     0.13700
H30         H  0.12966470  0.08010866  0.52462988     0.13700
H31         H  0.86606316  0.91782296  0.52283861     0.13700
H32         H  0.92241607  0.86315383  0.51946702     0.13700
H33         H  0.97412510  0.02358976  0.51731837     0.27000
H34         H  0.02262405  0.97608331  0.51426312     0.27000
Zn35       Zn  0.96542769  0.53345215  0.46050373     1.49700
Zn36       Zn  0.02962908  0.46383049  0.46081246     1.49400
Zn37       Zn  0.03079133  0.53413502  0.52945323     1.49100
Zn38       Zn  0.96435954  0.46483328  0.52976803     1.49500
O39         O  0.99760811  0.49904475  0.49514251    -1.83300
O40         O  0.97454073  0.52176852  0.40179752    -0.73900
O41         O  0.08784812  0.47291852  0.47331851    -0.73700
O42         O  0.02204182  0.59334897  0.51845276    -0.73200
O43         O  0.02067826  0.47423950  0.40145984    -0.73900
O44         O  0.97733455  0.59248592  0.46903732    -0.73500
O45         O  0.08832222  0.52205894  0.51904540    -0.74100
O46         O  0.97745096  0.47338791  0.58843339    -0.73500
O47         O  0.01654469  0.40520852  0.47016219    -0.74300
O48         O  0.02149681  0.52390983  0.58865420    -0.73600
O49         O  0.97016052  0.40533654  0.51787586    -0.74100
O50         O  0.90686901  0.47810585  0.52058110    -0.74000
O51         O  0.90731754  0.52391684  0.47202621    -0.73800
C52         C  0.99745109  0.49792477  0.38291500     0.78000
C53         C  0.10645302  0.49700771  0.49678070     0.78500
C54         C  0.00014912  0.61163251  0.49325261     0.77400
C55         C  0.00016529  0.49807715  0.60719944     0.77800
C56         C  0.99242593  0.38655491  0.49328205     0.78900
C57         C  0.88872020  0.50120443  0.49649402     0.78000
Zn58       Zn  0.46436511  0.03199012  0.46503991     1.49700
Zn59       Zn  0.53318732  0.96633683  0.46725226     1.49400
Zn60       Zn  0.53277130  0.03286990  0.53494696     1.49100
Zn61       Zn  0.46224703  0.96769855  0.53454509     1.49500
O62         O  0.49812394  0.99975988  0.50040876    -1.83300
O63         O  0.47434110  0.01922422  0.40615669    -0.73900
O64         O  0.59220825  0.97546930  0.47879028    -0.73700
O65         O  0.52182438  0.09074204  0.52398350    -0.73200
O66         O  0.52508420  0.97649840  0.40806725    -0.73900
O67         O  0.47671759  0.09019693  0.47450693    -0.73500
O68         O  0.59201510  0.02256187  0.52605889    -0.74100
O69         O  0.47152984  0.97872258  0.59333372    -0.73500
O70         O  0.52127878  0.90863055  0.47883556    -0.74300
O71         O  0.52183886  0.02294814  0.59369653    -0.73600
O72         O  0.47263146  0.90955210  0.52478704    -0.74100
O73         O  0.40355658  0.97870517  0.52485806    -0.74000
O74         O  0.40508466  0.02490821  0.47717183    -0.73800
C75         C  0.50031760  0.99762624  0.38845831     0.78000
C76         C  0.61083948  0.99872812  0.50298165     0.78500
C77         C  0.49921545  0.10888773  0.49935216     0.77400
C78         C  0.49642747  0.00106702  0.61215563     0.77800
C79         C  0.49700196  0.89072401  0.50234080     0.78900
C80         C  0.38566742  0.00290205  0.50170749     0.78000
N81         N  0.50754766  0.96111320  0.04430497    -0.35800
N82         N  0.50616055  0.04818650  0.04444957    -0.56300
N83         N  0.49917846  0.04721629  0.95647342    -0.35800
N84         N  0.50489757  0.95985430  0.95646814    -0.56300
C85         C  0.51580215  0.96850965  0.08354371     0.27800
C86         C  0.51534554  0.92194091  0.03719030     0.27800
C87         C  0.50557797  0.08699568  0.96330500     0.27800
C88         C  0.50535199  0.04022126  0.91674661     0.27800
C89         C  0.50130171  0.04176608  0.08430903     0.36400
C90         C  0.49799909  0.08733502  0.03804767     0.36400
C91         C  0.50252033  0.91985535  0.96314173     0.36400
C92         C  0.49849193  0.96523908  0.91673044     0.36400
C93         C  0.52863897  0.93345297  0.10150333    -0.21000
C94         C  0.52866447  0.90427797  0.07227905    -0.21000
C95         C  0.51533277  0.10549710  0.92741249    -0.21000
C96         C  0.51465805  0.07630947  0.89813231    -0.21000
C97         C  0.49064862  0.07717636  0.10327975    -0.22100
C98         C  0.48803049  0.10576420  0.07404098    -0.22100
C99         C  0.49491540  0.89969814  0.92741165    -0.22100
C100        C  0.49272562  0.92829776  0.89804139    -0.22100
C101        C  0.50860442  0.00502914  0.10417512    -0.17500
C102        C  0.50876575  0.90098765  0.00061173    -0.17500
C103        C  0.50112069  0.00258553  0.89657605    -0.17400
C104        C  0.50162045  0.10736286  0.00071771    -0.17400
H105        H  0.53649843  0.92876960  0.13258136     0.15500
H106        H  0.53705950  0.87333282  0.07665883     0.15500
H107        H  0.52225117  0.13687981  0.92254034     0.15500
H108        H  0.52034530  0.08162711  0.86668701     0.15500
H109        H  0.48547304  0.08226934  0.13491262     0.13700
H110        H  0.47970369  0.13667199  0.07897602     0.13700
H111        H  0.49183523  0.86765325  0.92275839     0.13700
H112        H  0.48811200  0.92223697  0.86645002     0.13700
H113        H  0.49277365  0.98007425  0.02498871     0.27000
H114        H  0.48753087  0.02696401  0.97688608     0.27000
N115        N  0.95678737  0.50206128  0.03847674    -0.35800
N116        N  0.95657916  0.49730735  0.95091860    -0.56300
N117        N  0.04479466  0.50241516  0.95123163    -0.35800
N118        N  0.04502204  0.50220126  0.03872096    -0.56300
C119        C  0.91721879  0.49482243  0.03176181     0.27800
C120        C  0.96375042  0.49619619  0.07808339     0.27800
C121        C  0.03810762  0.49650819  0.91149886     0.27800
C122        C  0.08484232  0.49916347  0.95780966     0.27800
C123        C  0.91656531  0.50082421  0.95686277     0.36400
C124        C  0.96273586  0.49995313  0.91085983     0.36400
C125        C  0.03842848  0.50659881  0.07861650     0.36400
C126        C  0.08488168  0.50817379  0.03269976     0.36400
C127        C  0.89874185  0.48513060  0.06778890    -0.21000
C128        C  0.92804159  0.48552950  0.09676532    -0.21000
C129        C  0.07444285  0.48975074  0.89250682    -0.21000
C130        C  0.10378299  0.49183931  0.92143090    -0.21000
C131        C  0.89716753  0.50459413  0.92026776    -0.22100
C132        C  0.92631136  0.50429227  0.89126933    -0.22100
C133        C  0.07429269  0.51518791  0.09801907    -0.22100
C134        C  0.10361288  0.51562085  0.06924380    -0.22100
C135        C  0.89689996  0.49865437  0.99453628    -0.17500
C136        C  0.00099123  0.50132391  0.09832289    -0.17500
C137        C  0.10502879  0.50488676  0.99517472    -0.17400
C138        C  0.00053022  0.49837253  0.89135965    -0.17400
H139        H  0.86738268  0.47847536  0.07307534     0.15500
H140        H  0.92332262  0.47882183  0.12815262     0.15500
H141        H  0.07956124  0.48418950  0.86090965     0.15500
H142        H  0.13551694  0.48888155  0.91569741     0.15500
H143        H  0.86529919  0.50707292  0.91478035     0.13700
H144        H  0.92109125  0.50717989  0.85936952     0.13700
H145        H  0.07911693  0.52037640  0.12973809     0.13700
H146        H  0.13517099  0.52040352  0.07518142     0.13700
H147        H  0.97686668  0.51435730  0.01817732     0.27000
H148        H  0.02374882  0.51196178  0.97179930     0.27000
Zn149      Zn  0.46712525  0.46929544  0.97296612     1.49700
Zn150      Zn  0.53596608  0.47060643  0.03695071     1.49400
Zn151      Zn  0.53543824  0.53888454  0.96972783     1.49100
Zn152      Zn  0.46828000  0.54086492  0.03708350     1.49500
O153        O  0.50178259  0.50513264  0.00438991    -1.83300
O154        O  0.47488071  0.41078593  0.98513837    -0.73900
O155        O  0.59443530  0.48077416  0.02488350    -0.73700
O156        O  0.52039522  0.52831837  0.91212999    -0.73200
O157        O  0.52568684  0.41103245  0.02805474    -0.73900
O158        O  0.47918255  0.47521376  0.91484960    -0.73500
O159        O  0.59446484  0.52732524  0.97731221    -0.74100
O160        O  0.48282451  0.59944762  0.02914069    -0.73500
O161        O  0.52567101  0.48201886  0.09497580    -0.74300
O162        O  0.52941998  0.59802936  0.98163513    -0.73600
O163        O  0.47862833  0.52920543  0.09532411    -0.74100
O164        O  0.40852160  0.53371571  0.02412371    -0.74000
O165        O  0.40882231  0.48274187  0.98079934    -0.73800
C166        C  0.49998581  0.39216253  0.00668040     0.78000
C167        C  0.61304230  0.50371707  0.00059894     0.78500
C168        C  0.49921715  0.50104687  0.89517695     0.77400
C169        C  0.50766769  0.61737214  0.00623689     0.77800
C170        C  0.50228417  0.50564589  0.11353568     0.78900
C171        C  0.39000923  0.50888593  0.00122732     0.78000
Zn172      Zn  0.53197473  0.53325944  0.47203019     1.49700
Zn173      Zn  0.46368268  0.46688698  0.46997038     1.49400
Zn174      Zn  0.53004197  0.46454627  0.53792764     1.49100
Zn175      Zn  0.46475795  0.53341704  0.53866182     1.49500
O176        O  0.49764339  0.49951557  0.50481052    -1.83300
O177        O  0.52053830  0.52577617  0.41378523    -0.73900
O178        O  0.46842261  0.40885260  0.48169822    -0.73700
O179        O  0.58877946  0.47207812  0.52634545    -0.73200
O180        O  0.47780027  0.47406089  0.41229226    -0.73900
O181        O  0.58934228  0.52011528  0.48024915    -0.73500
O182        O  0.51586350  0.40729315  0.52843143    -0.74100
O183        O  0.47429156  0.52199793  0.59631368    -0.73500
O184        O  0.40608383  0.48000292  0.47781300    -0.74300
O185        O  0.51947425  0.47336145  0.59614803    -0.73600
O186        O  0.40648296  0.52417156  0.52805357    -0.74100
O187        O  0.47646690  0.59145549  0.52996839    -0.74000
O188        O  0.52517062  0.59105964  0.48450429    -0.73800
C189        C  0.49977836  0.49984686  0.39470381     0.78000
C190        C  0.49063028  0.38970701  0.50566945     0.78500
C191        C  0.60746798  0.49524433  0.50235193     0.77400
C192        C  0.49617973  0.49705180  0.61455844     0.77800
C193        C  0.38784605  0.50228930  0.50270216     0.78900
C194        C  0.50152319  0.60968274  0.50769508     0.78000
C195        C  0.49417250  0.47776570  0.79123606     0.21200
C196        C  0.49588354  0.45383315  0.75654803    -0.38700
C197        C  0.49401018  0.47472894  0.72022274     0.20200
C198        C  0.48936361  0.51598453  0.71878332     0.22800
C199        C  0.48807686  0.53979246  0.75331209    -0.39200
C200        C  0.49132004  0.51916738  0.78943298     0.21600
N201        N  0.49690262  0.46571861  0.82948079    -0.32500
C202        C  0.49688255  0.49992578  0.85162624    -0.10000
C203        C  0.49346857  0.53377050  0.82786974    -0.28800
N204        N  0.48878724  0.52885630  0.68086914    -0.45400
C205        C  0.49421610  0.49577107  0.65806572    -0.04700
C206        C  0.49754710  0.46132714  0.68128092    -0.22100
H207        H  0.49947877  0.42161844  0.75774178     0.19700
H208        H  0.48582725  0.57213524  0.75209123     0.18500
H209        H  0.49244277  0.56480278  0.83751292     0.14800
H210        H  0.50204330  0.43083219  0.67102701     0.14700
H211        H  0.49960855  0.43633483  0.83983055     0.32800
H212        H  0.48618169  0.55845350  0.67110914     0.35600
C213        C  0.50960209  0.48519066  0.21779634     0.21200
C214        C  0.51587060  0.46193618  0.25208063    -0.38700
C215        C  0.50851652  0.48129065  0.28866887     0.20200
C216        C  0.49673675  0.52100222  0.29085674     0.22800
C217        C  0.48984439  0.54399786  0.25660270    -0.39200
C218        C  0.49640062  0.52441205  0.22003934     0.21600
N219        N  0.51401121  0.47372896  0.17945592    -0.32500
C220        C  0.50272918  0.50563722  0.15732382    -0.10000
C221        C  0.49152355  0.53780964  0.18146122    -0.28800
N222        N  0.49262786  0.53272904  0.32910689    -0.45400
C223        C  0.50102870  0.50000534  0.35119303    -0.04700
C224        C  0.51091653  0.46723932  0.32729711    -0.22100
H225        H  0.52546135  0.43104936  0.25037663     0.19700
H226        H  0.47986749  0.57475524  0.25830678     0.18500
H227        H  0.48136944  0.56702090  0.17202632     0.14800
H228        H  0.51921349  0.43749588  0.33694484     0.14700
H229        H  0.52329344  0.44573175  0.16897306     0.32800
H230        H  0.48401799  0.56094625  0.33959206     0.35600
C231        C  0.79051292  0.48229753  0.00327101     0.21200
C232        C  0.75503635  0.46103024  0.01195856    -0.38700
C233        C  0.71928038  0.48192664  0.00582576     0.20200
C234        C  0.71879798  0.52091627  0.99171030     0.22800
C235        C  0.75433616  0.54242845  0.98358625    -0.39200
C236        C  0.79016111  0.52158953  0.98999599     0.21600
N237        N  0.82830508  0.46894627  0.00617671    -0.32500
C238        C  0.85228038  0.50007163  0.99507935    -0.10000
C239        C  0.82958350  0.53345162  0.98479668    -0.28800
N240        N  0.68085641  0.53362295  0.98748664    -0.45400
C241        C  0.65713762  0.50263966  0.99954928    -0.04700
C242        C  0.68000534  0.46996920  0.01133125    -0.22100
H243        H  0.75524472  0.43039901  0.02257630     0.19700
H244        H  0.75411313  0.57302204  0.97285940     0.18500
H245        H  0.84055671  0.56239504  0.97479434     0.14800
H246        H  0.66926710  0.44120383  0.02207220     0.14700
H247        H  0.83728936  0.44041533  0.01508618     0.32800
H248        H  0.67166660  0.56173803  0.97753180     0.35600
C249        C  0.21185777  0.49040686  0.98673461     0.21200
C250        C  0.24726255  0.47015853  0.97686726    -0.38700
C251        C  0.28325817  0.49030832  0.98644902     0.20200
C252        C  0.28408386  0.52754215  0.00504135     0.22800
C253        C  0.24860719  0.54808805  0.01437499    -0.39200
C254        C  0.21253902  0.52817153  0.00417528     0.21600
N255        N  0.17387492  0.47728693  0.98146174    -0.32500
C256        C  0.14994499  0.50713198  0.99501668    -0.10000
C257        C  0.17311910  0.53950197  0.00914810    -0.28800
N258        N  0.32219500  0.53935825  0.01256909    -0.45400
C259        C  0.34573941  0.50949669  0.99833632    -0.04700
C260        C  0.32246827  0.47864036  0.98153071    -0.22100
H261        H  0.24683423  0.44071295  0.96300518     0.19700
H262        H  0.24902549  0.57727418  0.02877478     0.18500
H263        H  0.16246163  0.56736006  0.02186496     0.14800
H264        H  0.33286998  0.45086958  0.96839296     0.14700
H265        H  0.16477344  0.44949680  0.96977120     0.32800
H266        H  0.33157511  0.56589402  0.02671198     0.35600
C267        C  0.49670133  0.72308547  0.02094339     0.21200
C268        C  0.47768439  0.75826527  0.03370225    -0.38700
C269        C  0.49387308  0.79423219  0.01881570     0.20200
C270        C  0.52672433  0.79517642  0.99340883     0.22800
C271        C  0.54594512  0.75998376  0.98087114    -0.39200
C272        C  0.52947916  0.72393713  0.99544348     0.21600
N273        N  0.48558878  0.68508965  0.02898552    -0.32500
C274        C  0.51109806  0.66149354  0.00804815    -0.10000
C275        C  0.53917121  0.68464759  0.98706102    -0.28800
N276        N  0.53591216  0.83313271  0.98305855    -0.45400
C277        C  0.50871073  0.85643894  0.00206565    -0.04700
C278        C  0.48202196  0.83326949  0.02465250    -0.22100
H279        H  0.45168893  0.75763118  0.05315017     0.19700
H280        H  0.57128570  0.76057185  0.96057956     0.18500
H281        H  0.56265591  0.67415663  0.96733031     0.14800
H282        H  0.45744007  0.84372760  0.04300335     0.14700
H283        H  0.46126847  0.67580182  0.04652214     0.32800
H284        H  0.55941449  0.84269538  0.96459195     0.35600
C285        C  0.51440642  0.28645871  0.01899259     0.21200
C286        C  0.53116391  0.25136842  0.03470107    -0.38700
C287        C  0.51707040  0.21510871  0.01789065     0.20200
C288        C  0.48832113  0.21382539  0.98792010     0.22800
C289        C  0.47161149  0.24890853  0.97217166    -0.39200
C290        C  0.48577089  0.28516468  0.98889048     0.21600
N291        N  0.52295400  0.32465864  0.02956478    -0.32500
C292        C  0.49951240  0.34785726  0.00604715    -0.10000
C293        C  0.47592177  0.32425286  0.98033231    -0.28800
N294        N  0.47946059  0.17563368  0.97760457    -0.45400
C295        C  0.50275881  0.15227851  0.00114113    -0.04700
C296        C  0.52684821  0.17599362  0.02642487    -0.22100
H297        H  0.55350760  0.25221750  0.05828802     0.19700
H298        H  0.44918141  0.24805351  0.94866874     0.18500
H299        H  0.45474643  0.33438737  0.95803254     0.14800
H300        H  0.54824326  0.16586010  0.04851097     0.14700
H301        H  0.54358385  0.33434096  0.05125922     0.32800
H302        H  0.45832275  0.16601273  0.95637980     0.35600
C303        C  0.51538944  0.78634892  0.49353002     0.21200
C304        C  0.53461577  0.75173871  0.47998184    -0.38700
C305        C  0.51874059  0.71560944  0.49440204     0.20200
C306        C  0.48627637  0.71410056  0.52032858     0.22800
C307        C  0.46710039  0.74870482  0.53391756    -0.39200
C308        C  0.48297664  0.78483215  0.51951381     0.21600
N309        N  0.52440432  0.82434564  0.48391237    -0.32500
C310        C  0.49751476  0.84702204  0.50397570    -0.10000
C311        C  0.47125966  0.82355126  0.52659129    -0.28800
N312        N  0.47644587  0.67607058  0.52898528    -0.45400
C313        C  0.50278954  0.65336768  0.50827131    -0.04700
C314        C  0.52970576  0.67683876  0.48643325    -0.22100
H315        H  0.55981859  0.75284666  0.45952818     0.19700
H316        H  0.44158666  0.74756386  0.55397785     0.18500
H317        H  0.44689444  0.83348810  0.54552683     0.14800
H318        H  0.55357228  0.66684340  0.46689372     0.14700
H319        H  0.54742667  0.83421420  0.46499598     0.32800
H320        H  0.45288608  0.66618641  0.54722566     0.35600
C321        C  0.48151181  0.21312435  0.48723630     0.21200
C322        C  0.46462495  0.24753515  0.47056582    -0.38700
C323        C  0.47553482  0.28375776  0.48921036     0.20200
C324        C  0.50120407  0.28546300  0.52192477     0.22800
C325        C  0.51796602  0.25111151  0.53861560    -0.39200
C326        C  0.50719038  0.21496645  0.51991799     0.21600
N327        N  0.47596235  0.17504489  0.47514115    -0.32500
C328        C  0.49831208  0.15268934  0.50037173    -0.10000
C329        C  0.51829604  0.17648031  0.52860807    -0.28800
N330        N  0.50856979  0.32351209  0.53286163    -0.45400
C331        C  0.48771871  0.34611656  0.50669968    -0.04700
C332        C  0.46631528  0.32252640  0.47930520    -0.22100
H333        H  0.44492943  0.24624826  0.44473422     0.19700
H334        H  0.53832239  0.25249018  0.56392558     0.18500
H335        H  0.53773465  0.16683608  0.55265447     0.14800
H336        H  0.44806331  0.33245378  0.45445255     0.14700
H337        H  0.45778468  0.16488895  0.45154996     0.32800
H338        H  0.52768111  0.33349300  0.55578504     0.35600
C339        C  0.51588335  0.00945606  0.71738269     0.21200
C340        C  0.53849002  0.01796540  0.75200480    -0.38700
C341        C  0.51965670  0.00922063  0.78862229     0.20200
C342        C  0.48108257  0.99356857  0.79064109     0.22800
C343        C  0.45863179  0.98453784  0.75595289    -0.39200
C344        C  0.47764131  0.99292863  0.71928157     0.21600
N345        N  0.52708729  0.01504449  0.67907151    -0.32500
C346        C  0.49602748  0.00144973  0.65632470    -0.10000
C347        C  0.46459520  0.98738860  0.68030576    -0.28800
N348        N  0.46960737  0.98916714  0.82909076    -0.45400
C349        C  0.50112541  0.00201075  0.85176324    -0.04700
C350        C  0.53308678  0.01424482  0.82748346    -0.22100
H351        H  0.56850956  0.03059223  0.75053543     0.19700
H352        H  0.42857972  0.97198489  0.75740445     0.18500
H353        H  0.43610094  0.97486119  0.67052165     0.14800
H354        H  0.56205635  0.02575876  0.83705624     0.14700
H355        H  0.55445906  0.02675330  0.66898732     0.32800
H356        H  0.44191228  0.97844369  0.83935425     0.35600
C357        C  0.48469078  0.00432566  0.28241971     0.21200
C358        C  0.46323920  0.01122707  0.24690981    -0.38700
C359        C  0.48497328  0.00695235  0.21113232     0.20200
C360        C  0.52516684  0.99696930  0.21067818     0.22800
C361        C  0.54654314  0.98950028  0.24622417    -0.39200
C362        C  0.52463075  0.99333701  0.28205966     0.21600
N363        N  0.47096737  0.00721589  0.32025181    -0.32500
C364        C  0.50218363  0.99745930  0.34424549    -0.10000
C365        C  0.53615667  0.98842392  0.32152493    -0.28800
N366        N  0.53903218  0.99558743  0.17275902    -0.45400
C367        C  0.50729401  0.00434772  0.14890902    -0.04700
C368        C  0.47305404  0.01144149  0.17182769    -0.22100
H369        H  0.43192594  0.01948449  0.24712604     0.19700
H370        H  0.57790393  0.98139983  0.24601015     0.18500
H371        H  0.56551593  0.98022487  0.33247339     0.14800
H372        H  0.44342175  0.01886171  0.16105845     0.14700
H373        H  0.44209918  0.01521159  0.32921745     0.32800
H374        H  0.56823161  0.98907107  0.16362468     0.35600
C375        C  0.78456097  0.48255087  0.50946702     0.21200
C376        C  0.75037475  0.46426147  0.52581784    -0.38700
C377        C  0.71379147  0.47820750  0.51127613     0.20200
C378        C  0.71150025  0.50782190  0.48237470     0.22800
C379        C  0.74572994  0.52578284  0.46562313    -0.39200
C380        C  0.78233805  0.51208454  0.48047407     0.21600
N381        N  0.82276366  0.47548319  0.51926251    -0.32500
C382        C  0.84496668  0.50063539  0.49629525    -0.10000
C383        C  0.82092865  0.52395961  0.47164031    -0.28800
N384        N  0.67321491  0.51714483  0.47511639    -0.45400
C385        C  0.65113050  0.49344392  0.49974969    -0.04700
C386        C  0.67527851  0.46850909  0.52255399    -0.22100
H387        H  0.75213620  0.44154075  0.54882191     0.19700
H388        H  0.74396409  0.54926821  0.44339464     0.18500
H389        H  0.83041545  0.54640632  0.45017643     0.14800
H390        H  0.66596796  0.44704597  0.54506043     0.14700
H391        H  0.83308156  0.45470123  0.54012892     0.32800
H392        H  0.66281963  0.53890271  0.45531376     0.35600
C393        C  0.21064569  0.51039662  0.51554657     0.21200
C394        C  0.24494363  0.52768524  0.53302594    -0.38700
C395        C  0.28147894  0.51388881  0.51803239     0.20200
C396        C  0.28360016  0.48498031  0.48810087     0.22800
C397        C  0.24931881  0.46740847  0.47091758    -0.39200
C398        C  0.21279436  0.48134525  0.48575721     0.21600
N399        N  0.17240232  0.51940792  0.52345124    -0.32500
C400        C  0.15017735  0.49595613  0.49845456    -0.10000
C401        C  0.17420658  0.47163750  0.47461162    -0.28800
N402        N  0.32181778  0.47757182  0.47855954    -0.45400
C403        C  0.34409003  0.50191133  0.50262460    -0.04700
C404        C  0.32010364  0.52497781  0.52776086    -0.22100
H405        H  0.24329015  0.55057132  0.55612017     0.19700
H406        H  0.25097408  0.44501592  0.44734568     0.18500
H407        H  0.16473800  0.45031761  0.45178904     0.14800
H408        H  0.32964384  0.54681435  0.55006481     0.14700
H409        H  0.16210065  0.54052012  0.54420116     0.32800
H410        H  0.33209736  0.45713653  0.45712894     0.35600
C411        C  0.01326139  0.51358241  0.71283233     0.21200
C412        C  0.02520615  0.53389154  0.74795936    -0.38700
C413        C  0.01304089  0.51618552  0.78415017     0.20200
C414        C  0.99077826  0.48088672  0.78528675     0.22800
C415        C  0.97876915  0.46062147  0.75016838    -0.39200
C416        C  0.99079105  0.47842008  0.71397896     0.21600
N417        N  0.02019848  0.52469207  0.67469633    -0.32500
C418        C  0.00162095  0.49663126  0.65139177    -0.10000
C419        C  0.98315712  0.46717610  0.67483507    -0.28800
N420        N  0.98324716  0.47013554  0.82340122    -0.45400
C421        C  0.00091984  0.49875359  0.84670324    -0.04700
C422        C  0.01965217  0.52806716  0.82329685    -0.22100
H423        H  0.04252198  0.56154228  0.74717302     0.19700
H424        H  0.96114294  0.43316441  0.75095168     0.18500
H425        H  0.96595118  0.44135488  0.66459497     0.14800
H426        H  0.03606839  0.55434319  0.83365102     0.14700
H427        H  0.03586312  0.55022307  0.66513775     0.32800
H428        H  0.96740309  0.44475089  0.83304846     0.35600
C429        C  0.98602453  0.51382823  0.20460648     0.21200
C430        C  0.97028115  0.53091982  0.23976035    -0.38700
C431        C  0.98351781  0.51421266  0.27595573     0.18000
C432        C  0.01036943  0.48285074  0.27709772     0.22800
C433        C  0.02597830  0.46562811  0.24191298    -0.39200
C434        C  0.01277467  0.48237796  0.20569236     0.21600
N435        N  0.97854487  0.52463212  0.16651792    -0.32500
C436        C  0.00073292  0.49995750  0.14308301    -0.10000
C437        C  0.02236015  0.47306323  0.16648659    -0.28800
N438        N  0.01869296  0.47284817  0.31526816    -0.45400
C439        C  0.99696334  0.49802840  0.33860864    -0.04700
C440        C  0.97457907  0.52417765  0.31511987    -0.22100
H441        H  0.94945765  0.55559553  0.23900048     0.19700
H442        H  0.04706594  0.44118089  0.24268202     0.18500
H443        H  0.04239756  0.44988552  0.15611142     0.14800
H444        H  0.95473908  0.54759426  0.32535555     0.14700
H445        H  0.95967884  0.54752042  0.15697880     0.32800
H446        H  0.03809626  0.45042867  0.32484078     0.35600
C447        C  0.28001810  0.99257080  0.51909545     0.21200
C448        C  0.24473975  0.97517569  0.53457143    -0.38700
C449        C  0.20867888  0.98983010  0.51889772     0.20200
C450        C  0.20783701  0.01972631  0.49024460     0.22800
C451        C  0.24307941  0.03735288  0.47503262    -0.39200
C452        C  0.27913528  0.02248252  0.49045176     0.21600
N453        N  0.31804806  0.98235073  0.52735781    -0.32500
C454        C  0.34154794  0.00563457  0.50350862    -0.10000
C455        C  0.31834208  0.03134658  0.48037378    -0.28800
N456        N  0.16988635  0.02767537  0.47950067    -0.45400
C457        C  0.14629624  0.00270660  0.50147973    -0.04700
C458        C  0.16945941  0.97865168  0.52644562    -0.22100
H459        H  0.24533885  0.95138456  0.55654068     0.19700
H460        H  0.24248774  0.06033391  0.45221857     0.18500
H461        H  0.32872312  0.05281640  0.45833769     0.14800
H462        H  0.15893087  0.95604045  0.54724283     0.14700
H463        H  0.32738317  0.96017820  0.54722913     0.32800
H464        H  0.16057384  0.04852862  0.45823370     0.35600
C465        C  0.78952380  0.00795152  0.51989994     0.21200
C466        C  0.75475736  0.02188340  0.53908590    -0.38700
C467        C  0.71812687  0.00939358  0.52192634     0.20200
C468        C  0.71631271  0.98477188  0.48837071     0.22800
C469        C  0.75103596  0.97077807  0.46928615    -0.39200
C470        C  0.78760147  0.98328738  0.48637310     0.21600
N471        N  0.82794864  0.01589690  0.52989104    -0.32500
C472        C  0.85055142  0.99584426  0.50270330    -0.10000
C473        C  0.82646278  0.97528333  0.47503713    -0.28800
N474        N  0.67799691  0.97758917  0.47759342    -0.45400
C475        C  0.65512958  0.99797215  0.50429738    -0.04700
C476        C  0.67911606  0.01809824  0.53248471    -0.22100
H477        H  0.75611491  0.04124878  0.56524189     0.19700
H478        H  0.74969191  0.95170931  0.44291574     0.18500
H479        H  0.83620002  0.95715003  0.44991019     0.14800
H480        H  0.66931449  0.03673859  0.55721727     0.14700
H481        H  0.83824094  0.03369088  0.55374518     0.32800
H482        H  0.66803607  0.96025782  0.45326562     0.35600
C483        C  0.01285766  0.71736273  0.50951539     0.21200
C484        C  0.02601057  0.75233531  0.52943537    -0.38700
C485        C  0.01315972  0.78865919  0.51295341     0.20200
C486        C  0.98882531  0.79006821  0.47930914     0.22800
C487        C  0.97567452  0.75506563  0.45933658    -0.39200
C488        C  0.98865647  0.71870007  0.47577872     0.21600
N489        N  0.02052965  0.67919588  0.51960144    -0.32500
C490        C  0.00092136  0.65593083  0.49226395    -0.10000
C491        C  0.98080833  0.67952551  0.46431904    -0.28800
N492        N  0.98066252  0.82829318  0.46976751    -0.45400
C493        C  0.00020774  0.85134424  0.49734899    -0.04700
C494        C  0.02075413  0.82771143  0.52481438    -0.22100
H495        H  0.04482870  0.75133048  0.55588715     0.19700
H496        H  0.95662894  0.75606622  0.43304331     0.18500
H497        H  0.96251522  0.66936860  0.43932338     0.14800
H498        H  0.03869744  0.83783588  0.55006362     0.14700
H499        H  0.03754186  0.66955865  0.54398928     0.32800
H500        H  0.96314246  0.83819224  0.44585401     0.35600
C501        C  0.97643591  0.28070779  0.50589007     0.21200
C502        C  0.96122362  0.24545470  0.52350986    -0.38700
C503        C  0.97767992  0.20938117  0.50941026     0.20200
C504        C  0.00697374  0.20847550  0.47999632     0.22800
C505        C  0.02189202  0.24364469  0.46216194    -0.39200
C506        C  0.00553920  0.27966779  0.47629915     0.21600
N507        N  0.96721124  0.31888236  0.51523507    -0.32500
C508        C  0.99080807  0.34225845  0.49151750    -0.10000
C509        C  0.01481648  0.31880277  0.46663648    -0.28800
N510        N  0.01805531  0.17054278  0.47218473    -0.45400
C511        C  0.99548255  0.14700536  0.49661363    -0.04700
C512        C  0.96999804  0.17019320  0.52033781    -0.22100
H513        H  0.93865920  0.24607569  0.54684392     0.19700
H514        H  0.04498899  0.24305826  0.43935757     0.18500
H515        H  0.03698401  0.32906085  0.44518818     0.14800
H516        H  0.94866298  0.15966037  0.54248125     0.14700
H517        H  0.94687819  0.32842064  0.53704248     0.32800
H518        H  0.03926802  0.16115593  0.45117262     0.35600
loop_ 
_geom_bond_atom_site_label_1 
_geom_bond_atom_site_label_2 
_geom_bond_distance 
_geom_bond_site_symmetry_2 
_ccdc_geom_bond_type 
N1            C6   1.355       .  A
N1            C5   1.355       .  A
N1           H33   1.039       .  S
N2            C9   1.354       .  A
N2           C10   1.354       .  A
N3            C8   1.355       .  A
N3            C7   1.354       .  A
N3           H34   1.038       .  S
N4           C11   1.353       .  A
N4           C12   1.353       .  A
C5           C13   1.387       .  A
C5           C21   1.416       .  A
C6           C22   1.414   1_545  A
C6           C14   1.386       .  A
C7           C15   1.388       .  A
C7           C24   1.419   1_565  A
C8           C23   1.418   1_455  A
C8           C16   1.387       .  A
C9           C21   1.414   1_455  A
C9           C17   1.385       .  A
C10          C24   1.417       .  A
C10          C18   1.387       .  A
C11          C19   1.386       .  A
C11          C22   1.414       .  A
C12          C20   1.386       .  A
C12          C23   1.415       .  A
C13          C14   1.374       .  A
C13          H25   1.082       .  S
C14          H26   1.082       .  S
C15          C16   1.375       .  A
C15          H27   1.082       .  S
C16          H28   1.082       .  S
C17          C18   1.372       .  A
C17          H29   1.082       .  S
C18          H30   1.082       .  S
C19          C20   1.372       .  A
C19          H31   1.082       .  S
C20          H32   1.082       .  S
C21         C511   1.490       .  S
C22         C472   1.487       .  S
C23         C493   1.487   1_655  S
C24         C457   1.490       .  S
Zn35         O39   1.959       .  S
Zn35         O40   2.016       .  S
Zn35         O44   2.021       .  S
Zn35         O51   1.997       .  S
Zn36         O39   1.960   1_455  S
Zn36         O41   2.004       .  S
Zn36         O43   2.032       .  S
Zn36         O47   2.023       .  S
Zn37         O39   1.963   1_455  S
Zn37         O42   2.033       .  S
Zn37         O45   1.994       .  S
Zn37         O48   2.027       .  S
Zn38         O39   1.961       .  S
Zn38         O46   2.021       .  S
Zn38         O49   2.031       .  S
Zn38         O50   1.995       .  S
O40          C52   1.273       .  A
O41          C53   1.274       .  A
O42          C54   1.274       .  A
O43          C52   1.274   1_455  A
O44          C54   1.273   1_655  A
O45          C53   1.272       .  A
O46          C55   1.273   1_655  A
O47          C56   1.273   1_455  A
O48          C55   1.273       .  A
O49          C56   1.273       .  A
O50          C57   1.272       .  A
O51          C57   1.272       .  A
C52         C439   1.476       .  S
C53         C400   1.459       .  S
C54         C490   1.477       .  S
C55         C418   1.474       .  S
C56         C508   1.478       .  S
C57         C382   1.458       .  S
Zn58         O62   1.961   1_545  S
Zn58         O63   2.034       .  S
Zn58         O67   2.002       .  S
Zn58         O74   2.028       .  S
Zn59         O62   1.961       .  S
Zn59         O64   2.023       .  S
Zn59         O66   2.021       .  S
Zn59         O70   1.999       .  S
Zn60         O62   1.958   1_545  S
Zn60         O65   2.002       .  S
Zn60         O68   2.030       .  S
Zn60         O71   2.020       .  S
Zn61         O62   1.963       .  S
Zn61         O69   2.014       .  S
Zn61         O72   1.997       .  S
Zn61         O73   2.020       .  S
O63          C75   1.275   1_545  A
O64          C76   1.272       .  A
O65          C77   1.273       .  A
O66          C75   1.273       .  A
O67          C77   1.272       .  A
O68          C76   1.273   1_545  A
O69          C78   1.272   1_565  A
O70          C79   1.273       .  A
O71          C78   1.273       .  A
O72          C79   1.273       .  A
O73          C80   1.272   1_565  A
O74          C80   1.273       .  A
C75         C364   1.475       .  S
C76         C475   1.477       .  S
C77         C328   1.461       .  S
C78         C346   1.472       .  S
C79         C310   1.458       .  S
C80         C454   1.475       .  S
N81          C86   1.354       .  A
N81          C85   1.357       .  A
N81         H113   1.033       .  S
N82          C89   1.356       .  A
N82          C90   1.354       .  A
N83          C88   1.359       .  A
N83          C87   1.358       .  A
N83         H114   1.034       .  S
N84          C91   1.354       .  A
N84          C92   1.354       .  A
C85          C93   1.387       .  A
C85         C101   1.418   1_565  A
C86         C102   1.417       .  A
C86          C94   1.387       .  A
C87          C95   1.386       .  A
C87         C104   1.423   1_556  A
C88         C103   1.425       .  A
C88          C96   1.388       .  A
C89         C101   1.418       .  A
C89          C97   1.386       .  A
C90         C104   1.419       .  A
C90          C98   1.387       .  A
C91          C99   1.386       .  A
C91         C102   1.417   1_556  A
C92         C100   1.388       .  A
C92         C103   1.419   1_565  A
C93          C94   1.372       .  A
C93         H105   1.081       .  S
C94         H106   1.082       .  S
C95          C96   1.374       .  A
C95         H107   1.082       .  S
C96         H108   1.080       .  S
C97          C98   1.370       .  A
C97         H109   1.081       .  S
C98         H110   1.082       .  S
C99         C100   1.372       .  A
C99         H111   1.082       .  S
C100        H112   1.081       .  S
C101        C367   1.492       .  S
C102        C277   1.486       .  S
C103        C349   1.493       .  S
C104        C295   1.497       .  S
N115        C120   1.355       .  A
N115        C119   1.356       .  A
N115        H147   1.035       .  S
N116        C123   1.355       .  A
N116        C124   1.354       .  A
N117        C122   1.358       .  A
N117        C121   1.355       .  A
N117        H148   1.033       .  S
N118        C125   1.355       .  A
N118        C126   1.356       .  A
C119        C127   1.388       .  A
C119        C135   1.420   1_554  A
C120        C136   1.420   1_655  A
C120        C128   1.387       .  A
C121        C129   1.387       .  A
C121        C138   1.423       .  A
C122        C137   1.426       .  A
C122        C130   1.389       .  A
C123        C135   1.418       .  A
C123        C131   1.387       .  A
C124        C138   1.419   1_655  A
C124        C132   1.387       .  A
C125        C133   1.385       .  A
C125        C136   1.420       .  A
C126        C134   1.388       .  A
C126        C137   1.424   1_554  A
C127        C128   1.373       .  A
C127        H139   1.081       .  S
C128        H140   1.082       .  S
C129        C130   1.373       .  A
C129        H141   1.082       .  S
C130        H142   1.080       .  S
C131        C132   1.371       .  A
C131        H143   1.082       .  S
C132        H144   1.082       .  S
C133        C134   1.370       .  A
C133        H145   1.082       .  S
C134        H146   1.080       .  S
C135        C238   1.488       .  S
C136        C436   1.492       .  S
C137        C256   1.498       .  S
C138        C421   1.488       .  S
Zn149       O153   1.952   1_556  S
Zn149       O154   2.013       .  S
Zn149       O158   1.988       .  S
Zn149       O165   2.016       .  S
Zn150       O153   1.960       .  S
Zn150       O155   2.015       .  S
Zn150       O157   2.031       .  S
Zn150       O161   1.999       .  S
Zn151       O153   1.961   1_556  S
Zn151       O156   2.012       .  S
Zn151       O159   2.025       .  S
Zn151       O162   2.021       .  S
Zn152       O153   1.967       .  S
Zn152       O160   2.025       .  S
Zn152       O163   2.012       .  S
Zn152       O164   2.049       .  S
O154        C166   1.271   1_556  A
O155        C167   1.273       .  A
O156        C168   1.274       .  A
O157        C166   1.272       .  A
O158        C168   1.269       .  A
O159        C167   1.273   1_556  A
O160        C169   1.273       .  A
O161        C170   1.272       .  A
O162        C169   1.272   1_556  A
O163        C170   1.275       .  A
O164        C171   1.276       .  A
O165        C171   1.274   1_556  A
C166        C292   1.477       .  S
C167        C241   1.471   1_554  S
C168        C202   1.453       .  S
C169        C274   1.475       .  S
C170        C220   1.459       .  S
C171        C259   1.479   1_554  S
Zn172       O176   1.937       .  S
Zn172       O177   1.991       .  S
Zn172       O181   1.985       .  S
Zn172       O188   1.984       .  S
Zn173       O176   1.941       .  S
Zn173       O178   1.983       .  S
Zn173       O180   1.994       .  S
Zn173       O184   1.991       .  S
Zn174       O176   1.945       .  S
Zn174       O179   2.009       .  S
Zn174       O182   1.984       .  S
Zn174       O185   1.993       .  S
Zn175       O176   1.941       .  S
Zn175       O183   1.986       .  S
Zn175       O186   1.994       .  S
Zn175       O187   1.992       .  S
O177        C189   1.269       .  A
O178        C190   1.268       .  A
O179        C191   1.273       .  A
O180        C189   1.269       .  A
O181        C191   1.269       .  A
O182        C190   1.269       .  A
O183        C192   1.269       .  A
O184        C193   1.270       .  A
O185        C192   1.270       .  A
O186        C193   1.270       .  A
O187        C194   1.270       .  A
O188        C194   1.269       .  A
C189        C223   1.451       .  S
C190        C331   1.456       .  S
C191        C385   1.460       .  S
C192        C205   1.452       .  S
C193        C403   1.458       .  S
C194        C313   1.456       .  S
C195        N201   1.342       .  A
C195        C200   1.386       .  A
C195        C196   1.402       .  A
C196        C197   1.401       .  A
C196        H207   1.083       .  S
C197        C206   1.376       .  A
C197        C198   1.386       .  A
C198        N204   1.337       .  A
C198        C199   1.395       .  A
C199        C200   1.394       .  A
C199        H208   1.082       .  S
C200        C203   1.369       .  A
N201        C202   1.355       .  A
N201        H211   1.045       .  S
C202        C203   1.387       .  A
C203        H209   1.082       .  S
N204        C205   1.350       .  A
N204        H212   1.045       .  S
C205        C206   1.393       .  A
C206        H210   1.083       .  S
C213        N219   1.340       .  A
C213        C218   1.386       .  A
C213        C214   1.401       .  A
C214        C215   1.399       .  A
C214        H225   1.083       .  S
C215        C224   1.375       .  A
C215        C216   1.386       .  A
C216        N222   1.339       .  A
C216        C217   1.399       .  A
C217        C218   1.398       .  A
C217        H226   1.082       .  S
C218        C221   1.373       .  A
N219        C220   1.354       .  A
N219        H229   1.045       .  S
C220        C221   1.392       .  A
C221        H227   1.082       .  S
N222        C223   1.351       .  A
N222        H230   1.045       .  S
C223        C224   1.391       .  A
C224        H228   1.083       .  S
C231        N237   1.344       .  A
C231        C236   1.385   1_554  A
C231        C232   1.403       .  A
C232        C233   1.402       .  A
C232        H243   1.082       .  S
C233        C242   1.377       .  A
C233        C234   1.385   1_554  A
C234        N240   1.346       .  A
C234        C235   1.405       .  A
C235        C236   1.405       .  A
C235        H244   1.082       .  S
C236        C239   1.379       .  A
N237        C238   1.356   1_554  A
N237        H247   1.045       .  S
C238        C239   1.396       .  A
C239        H245   1.082       .  S
N240        C241   1.356       .  A
N240        H248   1.045       .  S
C241        C242   1.394   1_556  A
C242        H246   1.082       .  S
C249        N255   1.346       .  A
C249        C254   1.383   1_556  A
C249        C250   1.404       .  A
C250        C251   1.404       .  A
C250        H261   1.082       .  S
C251        C260   1.377       .  A
C251        C252   1.384   1_556  A
C252        N258   1.349       .  A
C252        C253   1.407       .  A
C253        C254   1.407       .  A
C253        H262   1.082       .  S
C254        C257   1.381       .  A
N255        C256   1.358       .  A
N255        H265   1.045       .  S
C256        C257   1.399   1_556  A
C257        H263   1.082       .  S
N258        C259   1.358   1_554  A
N258        H266   1.045       .  S
C259        C260   1.396       .  A
C260        H264   1.082       .  S
C267        N273   1.344       .  A
C267        C272   1.385   1_554  A
C267        C268   1.403       .  A
C268        C269   1.402       .  A
C268        H279   1.082       .  S
C269        C278   1.377       .  A
C269        C270   1.385   1_554  A
C270        N276   1.345       .  A
C270        C271   1.404       .  A
C271        C272   1.404       .  A
C271        H280   1.082       .  S
C272        C275   1.379       .  A
N273        C274   1.356       .  A
N273        H283   1.045       .  S
C274        C275   1.397   1_554  A
C275        H281   1.082       .  S
N276        C277   1.356   1_556  A
N276        H284   1.045       .  S
C277        C278   1.395       .  A
C278        H282   1.082       .  S
C285        N291   1.347       .  A
C285        C290   1.384   1_554  A
C285        C286   1.405       .  A
C286        C287   1.405       .  A
C286        H297   1.082       .  S
C287        C296   1.378       .  A
C287        C288   1.384   1_554  A
C288        N294   1.346       .  A
C288        C289   1.405       .  A
C289        C290   1.405       .  A
C289        H298   1.082       .  S
C290        C293   1.378       .  A
N291        C292   1.357       .  A
N291        H301   1.045       .  S
C292        C293   1.396   1_554  A
C293        H299   1.082       .  S
N294        C295   1.358   1_556  A
N294        H302   1.045       .  S
C295        C296   1.399       .  A
C296        H300   1.082       .  S
C303        N309   1.339       .  A
C303        C308   1.386       .  A
C303        C304   1.399       .  A
C304        C305   1.398       .  A
C304        H315   1.083       .  S
C305        C314   1.371       .  A
C305        C306   1.386       .  A
C306        N312   1.339       .  A
C306        C307   1.398       .  A
C307        C308   1.397       .  A
C307        H316   1.082       .  S
C308        C311   1.372       .  A
N309        C310   1.353       .  A
N309        H319   1.045       .  S
C310        C311   1.392       .  A
C311        H317   1.082       .  S
N312        C313   1.353       .  A
N312        H320   1.045       .  S
C313        C314   1.392       .  A
C314        H318   1.083       .  S
C321        N327   1.340       .  A
C321        C326   1.385       .  A
C321        C322   1.400       .  A
C322        C323   1.399       .  A
C322        H333   1.082       .  S
C323        C332   1.373       .  A
C323        C324   1.386       .  A
C324        N330   1.338       .  A
C324        C325   1.397       .  A
C325        C326   1.397       .  A
C325        H334   1.082       .  S
C326        C329   1.371       .  A
N327        C328   1.355       .  A
N327        H337   1.045       .  S
C328        C329   1.392       .  A
C329        H335   1.082       .  S
N330        C331   1.352       .  A
N330        H338   1.045       .  S
C331        C332   1.393       .  A
C332        H336   1.083       .  S
C339        N345   1.344       .  A
C339        C344   1.384   1_545  A
C339        C340   1.403       .  A
C340        C341   1.403       .  A
C340        H351   1.082       .  S
C341        C350   1.379       .  A
C341        C342   1.384   1_545  A
C342        N348   1.346       .  A
C342        C343   1.406       .  A
C343        C344   1.405       .  A
C343        H352   1.082       .  S
C344        C347   1.380       .  A
N345        C346   1.355       .  A
N345        H355   1.045       .  S
C346        C347   1.396   1_545  A
C347        H353   1.082       .  S
N348        C349   1.358   1_565  A
N348        H356   1.045       .  S
C349        C350   1.397       .  A
C350        H354   1.082       .  S
C357        N363   1.345       .  A
C357        C362   1.385   1_545  A
C357        C358   1.403       .  A
C358        C359   1.403       .  A
C358        H369   1.082       .  S
C359        C368   1.378       .  A
C359        C360   1.384   1_545  A
C360        N366   1.346       .  A
C360        C361   1.407       .  A
C361        C362   1.406       .  A
C361        H370   1.082       .  S
C362        C365   1.381       .  A
N363        C364   1.355   1_545  A
N363        H373   1.045       .  S
C364        C365   1.397       .  A
C365        H371   1.082       .  S
N366        C367   1.358   1_565  A
N366        H374   1.045       .  S
C367        C368   1.395       .  A
C368        H372   1.082       .  S
C375        N381   1.338       .  A
C375        C380   1.385       .  A
C375        C376   1.398       .  A
C376        C377   1.397       .  A
C376        H387   1.082       .  S
C377        C386   1.373       .  A
C377        C378   1.385       .  A
C378        N384   1.339       .  A
C378        C379   1.400       .  A
C379        C380   1.399       .  A
C379        H388   1.083       .  S
C380        C383   1.374       .  A
N381        C382   1.353       .  A
N381        H391   1.045       .  S
C382        C383   1.393       .  A
C383        H389   1.083       .  S
N384        C385   1.354       .  A
N384        H392   1.045       .  S
C385        C386   1.392       .  A
C386        H390   1.082       .  S
C393        N399   1.339       .  A
C393        C398   1.385       .  A
C393        C394   1.400       .  A
C394        C395   1.398       .  A
C394        H405   1.082       .  S
C395        C404   1.373       .  A
C395        C396   1.385       .  A
C396        N402   1.338       .  A
C396        C397   1.399       .  A
C397        C398   1.398       .  A
C397        H406   1.082       .  S
C398        C401   1.373       .  A
N399        C400   1.354       .  A
N399        H409   1.045       .  S
C400        C401   1.392       .  A
C401        H407   1.082       .  S
N402        C403   1.353       .  A
N402        H410   1.045       .  S
C403        C404   1.393       .  A
C404        H408   1.083       .  S
C411        N417   1.345       .  A
C411        C416   1.384   1_455  A
C411        C412   1.404       .  A
C412        C413   1.404       .  A
C412        H423   1.082       .  S
C413        C422   1.378       .  A
C413        C414   1.385   1_455  A
C414        N420   1.345       .  A
C414        C415   1.404       .  A
C415        C416   1.403       .  A
C415        H424   1.082       .  S
C416        C419   1.378       .  A
N417        C418   1.356       .  A
N417        H427   1.045       .  S
C418        C419   1.396   1_455  A
C419        H425   1.082       .  S
N420        C421   1.356   1_655  A
N420        H428   1.045       .  S
C421        C422   1.396       .  A
C422        H426   1.082       .  S
C429        N435   1.345       .  A
C429        C434   1.384   1_655  A
C429        C430   1.404       .  A
C430        C431   1.404       .  A
C430        H441   1.082       .  S
C431        C440   1.379       .  A
C431        C432   1.384   1_655  A
C432        N438   1.346       .  A
C432        C433   1.405       .  A
C433        C434   1.405       .  A
C433        H442   1.082       .  S
C434        C437   1.380       .  A
N435        C436   1.357   1_655  A
N435        H445   1.045       .  S
C436        C437   1.397       .  A
C437        H443   1.082       .  S
N438        C439   1.357   1_455  A
N438        H446   1.045       .  S
C439        C440   1.396       .  A
C440        H444   1.082       .  S
C447        N453   1.345       .  A
C447        C452   1.384   1_565  A
C447        C448   1.405       .  A
C448        C449   1.404       .  A
C448        H459   1.082       .  S
C449        C458   1.379       .  A
C449        C450   1.384   1_565  A
C450        N456   1.344       .  A
C450        C451   1.404       .  A
C451        C452   1.403       .  A
C451        H460   1.082       .  S
C452        C455   1.379       .  A
N453        C454   1.357   1_565  A
N453        H463   1.045       .  S
C454        C455   1.396       .  A
C455        H461   1.082       .  S
N456        C457   1.356       .  A
N456        H464   1.045       .  S
C457        C458   1.397   1_545  A
C458        H462   1.082       .  S
C465        N471   1.346       .  A
C465        C470   1.385   1_545  A
C465        C466   1.406       .  A
C466        C467   1.406       .  A
C466        H477   1.082       .  S
C467        C476   1.381       .  A
C467        C468   1.384   1_545  A
C468        N474   1.345       .  A
C468        C469   1.404       .  A
C469        C470   1.403       .  A
C469        H478   1.082       .  S
C470        C473   1.378       .  A
N471        C472   1.357   1_545  A
N471        H481   1.045       .  S
C472        C473   1.394       .  A
C473        H479   1.082       .  S
N474        C475   1.357       .  A
N474        H482   1.045       .  S
C475        C476   1.397   1_565  A
C476        H480   1.082       .  S
C483        N489   1.345       .  A
C483        C488   1.384   1_455  A
C483        C484   1.404       .  A
C484        C485   1.403       .  A
C484        H495   1.082       .  S
C485        C494   1.379       .  A
C485        C486   1.385   1_455  A
C486        N492   1.345       .  A
C486        C487   1.406       .  A
C487        C488   1.405       .  A
C487        H496   1.082       .  S
C488        C491   1.381       .  A
N489        C490   1.356       .  A
N489        H499   1.045       .  S
C490        C491   1.398   1_455  A
C491        H497   1.082       .  S
N492        C493   1.356   1_655  A
N492        H500   1.045       .  S
C493        C494   1.395       .  A
C494        H498   1.082       .  S
C501        N507   1.347       .  A
C501        C506   1.384   1_655  A
C501        C502   1.406       .  A
C502        C503   1.406       .  A
C502        H513   1.082       .  S
C503        C512   1.379       .  A
C503        C504   1.384   1_655  A
C504        N510   1.345       .  A
C504        C505   1.403       .  A
C505        C506   1.403       .  A
C505        H514   1.082       .  S
C506        C509   1.377       .  A
N507        C508   1.358       .  A
N507        H517   1.045       .  S
C508        C509   1.395   1_655  A
C509        H515   1.082       .  S
N510        C511   1.356   1_455  A
N510        H518   1.045       .  S
C511        C512   1.397       .  A
C512        H516   1.082       .  S
