geometry optimzed in LAMMPS
_audit_creation_date              2020-12-01 
_audit_creation_method            'lammps2cif' 
_symmetry_space_group_name_H-M    'P1' 
_symmetry_Int_Tables_number       1 
_symmetry_cell_setting            triclinic 
loop_ 
_symmetry_equiv_pos_as_xyz 
  x,y,z 
_cell_length_a                    50.82660629 
_cell_length_b                    50.731201617977874 
_cell_length_c                    43.896269792177236 
_cell_angle_alpha                 90.12969434401869 
_cell_angle_beta                  90.13080085188213 
_cell_angle_gamma                 90.02190627955538 
loop_ 
_atom_site_label 
_atom_site_type_symbol 
_atom_site_fract_x 
_atom_site_fract_y 
_atom_site_fract_z 
_atom_site_charge 
N1          N  0.95087398  0.85616329  0.15052318    -0.26900
N2          N  0.96693476  0.87656066  0.15283788    -0.34800
C3          C  0.97127150  0.88171884  0.18245969     0.01400
C4          C  0.95714767  0.86375723  0.19955651     0.07500
C5          C  0.94425817  0.84798444  0.17859274    -0.05600
H6          H  0.98289818  0.89806315  0.19091590     0.08100
H7          H  0.93087835  0.83194462  0.18336222     0.09300
Cu8        Cu  0.98004552  0.89792424  0.11569624     0.44200
Cu9        Cu  0.93890654  0.84052088  0.10930563     0.42000
Cu10       Cu  0.95638472  0.87678559  0.04137314     0.43900
N11         N  0.98761311  0.91796046  0.07559630    -0.34300
N12         N  0.97869613  0.91055741  0.04859333    -0.28500
C13         C  0.98727124  0.92770128  0.02750366    -0.04600
C14         C  0.00216592  0.94698015  0.04191642     0.07600
C15         C  0.00204397  0.93998267  0.07241306     0.01400
H16         H  0.98303987  0.92614921  0.00341417     0.09000
H17         H  0.01222497  0.94971947  0.09096358     0.08100
N18         N  0.93861033  0.83991623  0.04070062    -0.35700
N19         N  0.93284039  0.82659545  0.06561112    -0.27900
C20         C  0.92555228  0.80205248  0.05786715    -0.03200
C21         C  0.92635793  0.79963492  0.02639393     0.05500
C22         C  0.93476543  0.82421601  0.01637012     0.03500
H23         H  0.92208901  0.78658322  0.07430866     0.08700
H24         H  0.93938151  0.82988001  0.99325645     0.07500
N25         N  0.94048497  0.62334052  0.84988103    -0.26900
N26         N  0.94586709  0.59794119  0.85192287    -0.34800
C27         C  0.94697547  0.58761500  0.82376019     0.01400
C28         C  0.94203097  0.60745030  0.80283052     0.07500
C29         C  0.93811040  0.62988888  0.82034243    -0.05600
H30         H  0.95140138  0.56718266  0.81892627     0.08100
H31         H  0.93471281  0.64976118  0.81236880     0.09300
Cu32       Cu  0.95363624  0.57889708  0.89262883     0.44200
Cu33       Cu  0.93771704  0.64800625  0.88733429     0.42000
Cu34       Cu  0.94993730  0.61818385  0.96126553     0.43900
N35         N  0.96491264  0.56535484  0.93516038    -0.34300
N36         N  0.96373928  0.57970744  0.96027865    -0.28500
C37         C  0.97417853  0.56587344  0.98344973    -0.04600
C38         C  0.98253829  0.54169260  0.97231711     0.07600
C39         C  0.97606588  0.54201549  0.94166330     0.01400
H40         H  0.97574238  0.57306726  0.00660970     0.09000
H41         H  0.98000756  0.52675941  0.92504874     0.08100
N42         N  0.93970076  0.65740523  0.95516131    -0.35700
N43         N  0.93595948  0.66835397  0.92818848    -0.27900
C44         C  0.93150192  0.69426664  0.93193632    -0.03200
C45         C  0.93249132  0.69992341  0.96275621     0.05500
C46         C  0.93748771  0.67605658  0.97682097     0.03500
H47         H  0.92789122  0.70795339  0.91351584     0.08700
H48         H  0.94021593  0.67266388  0.00093255     0.07500
N49         N  0.66817353  0.58299918  0.34678761    -0.26900
N50         N  0.64533118  0.57059114  0.34648688    -0.34800
C51         C  0.63327714  0.57495268  0.31979035     0.01400
C52         C  0.64896909  0.59132006  0.30228384     0.07500
C53         C  0.67109473  0.59585577  0.32022153    -0.05600
H54         H  0.61502380  0.56553777  0.31318634     0.08100
H55         H  0.68848723  0.60689868  0.31408663     0.09300
Cu56       Cu  0.63156791  0.54689238  0.38110538     0.44200
Cu57       Cu  0.69532945  0.57913896  0.38191146     0.42000
Cu58       Cu  0.67394421  0.53685678  0.44459626     0.43900
N59         N  0.62061552  0.52533653  0.41879090    -0.34300
N60         N  0.63602492  0.52211944  0.44271049    -0.28500
C61         C  0.62296845  0.50836118  0.46399950    -0.04600
C62         C  0.59816742  0.50219639  0.45271476     0.07600
C63         C  0.59742675  0.51351631  0.42399784     0.01400
H64         H  0.63084089  0.50386574  0.48630415     0.09000
H65         H  0.58117792  0.51339774  0.40805376     0.08100
N66         N  0.71125431  0.55282143  0.44073914    -0.35700
N67         N  0.71904571  0.56843979  0.41844593    -0.27900
C68         C  0.74424710  0.57539124  0.42342540    -0.03200
C69         C  0.75283965  0.56336054  0.45001588     0.05500
C70         C  0.73125596  0.54931295  0.46031633     0.03500
H71         H  0.75521954  0.58864123  0.40894428     0.08700
H72         H  0.73010912  0.53726176  0.48055980     0.07500
N73         N  0.92893179  0.58995683  0.62437164    -0.26900
N74         N  0.95451406  0.58537057  0.62410381    -0.34800
C75         C  0.96400246  0.58775554  0.65258013     0.01400
C76         C  0.94333549  0.59403550  0.67175966     0.07500
C77         C  0.92144676  0.59549808  0.65301719    -0.05600
H78         H  0.98442373  0.58494389  0.65879317     0.08100
H79         H  0.90139452  0.59942235  0.65984704     0.09300
Cu80       Cu  0.97500995  0.57476449  0.58536134     0.44200
Cu81       Cu  0.90508667  0.58631904  0.58630727     0.42000
Cu82       Cu  0.93636373  0.56166930  0.51764425     0.43900
N83         N  0.99088194  0.56214214  0.54455904    -0.34300
N84         N  0.97686477  0.55715402  0.51982724    -0.28500
C85         C  0.99290019  0.54769791  0.49807125    -0.04600
C86         C  0.01830024  0.54678907  0.50963804     0.07600
C87         C  0.01615834  0.55603404  0.53923214     0.01400
H88         H  0.98623882  0.54075201  0.47603703     0.09000
H89         H  0.03168707  0.55751106  0.55602794     0.08100
N90         N  0.89623300  0.56802502  0.52172793    -0.35700
N91         N  0.88493804  0.57743329  0.54655358    -0.27900
C92         C  0.85888183  0.57928307  0.54178429    -0.03200
C93         C  0.85335633  0.57031938  0.51260264     0.05500
C94         C  0.87762485  0.56352980  0.50054258     0.03500
H95         H  0.84512847  0.58690470  0.55838184     0.08700
H96         H  0.88150275  0.55559969  0.47811264     0.07500
N97         N  0.63557596  0.61784333  0.12454330    -0.26900
N98         N  0.61831557  0.59848198  0.12697552    -0.34800
C99         C  0.61771527  0.59011800  0.15591161     0.01400
C100        C  0.63554502  0.60478748  0.17262605     0.07500
C101        C  0.64656259  0.62224081  0.15203288    -0.05600
H102        H  0.60484685  0.57478715  0.16427579     0.08100
H103        H  0.66049053  0.63783723  0.15692524     0.09300
Cu104      Cu  0.59532681  0.58460169  0.09170018     0.44200
Cu105      Cu  0.64052336  0.63915861  0.08471455     0.42000
Cu106      Cu  0.59852166  0.61806667  0.02087075     0.43900
N107        N  0.57621124  0.57137860  0.05316384    -0.34300
N108        N  0.57755105  0.58346506  0.02662832    -0.28500
C109        C  0.56518783  0.56870524  0.00550090    -0.04600
C110        C  0.55562486  0.54618675  0.01953024     0.07600
C111        C  0.56305289  0.54863103  0.04976094     0.01400
H112        H  0.56472386  0.57324540  0.98142998     0.09000
H113        H  0.56020024  0.53436685  0.06772454     0.08100
N114        N  0.61912614  0.65325103  0.02261724    -0.35700
N115        N  0.63479475  0.66070110  0.04516508    -0.27900
C116        C  0.64213250  0.68586686  0.04059987    -0.03200
C117        C  0.63033048  0.69468351  0.01410784     0.05500
C118        C  0.61593754  0.67350002  0.00334301     0.03500
H119        H  0.65304628  0.69761585  0.05690267     0.08700
H120        H  0.60259197  0.67340412  0.98411316     0.07500
N121        N  0.63593163  0.89163126  0.87881446    -0.26900
N122        N  0.61986515  0.91192093  0.87605737    -0.34800
C123        C  0.62336519  0.92294986  0.84861119     0.01400
C124        C  0.64288151  0.90917599  0.83328915     0.07500
C125        C  0.65026511  0.88932656  0.85325526    -0.05600
H126        H  0.61134243  0.93884007  0.83989426     0.08100
H127        H  0.66411139  0.87356349  0.84905251     0.09300
Cu128      Cu  0.59259499  0.92257536  0.90872004     0.44200
Cu129      Cu  0.63430623  0.86561985  0.91490624     0.42000
Cu130      Cu  0.58316009  0.87765347  0.97119909     0.43900
N131        N  0.56898624  0.93069084  0.94586651    -0.34300
N132        N  0.56579978  0.91447981  0.96907687    -0.28500
C133        C  0.55121122  0.92651197  0.99051774    -0.04600
C134        C  0.54468729  0.95142723  0.98012306     0.07600
C135        C  0.55644198  0.95339713  0.95180215     0.01400
H136        H  0.54632028  0.91800343  0.01235025     0.09000
H137        H  0.55706677  0.97056520  0.93722998     0.08100
N138        N  0.60424758  0.84288787  0.96782613    -0.35700
N139        N  0.62350496  0.83895028  0.94812667    -0.27900
C140        C  0.63284567  0.81436740  0.95158303    -0.03200
C141        C  0.61855829  0.80217019  0.97425562     0.05500
C142        C  0.60065437  0.82081012  0.98415606     0.03500
H143        H  0.64816988  0.80567854  0.93777071     0.08700
H144        H  0.58596151  0.81846928  0.00175130     0.07500
N145        N  0.92784156  0.87739515  0.37688190    -0.26900
N146        N  0.95161133  0.88788900  0.37695002    -0.34800
C147        C  0.96167082  0.88645226  0.34879019     0.01400
C148        C  0.94341071  0.87447315  0.32974285     0.07500
C149        C  0.92232041  0.86859843  0.34866315    -0.05600
H150        H  0.98055936  0.89459367  0.34253074     0.08100
H151        H  0.90400416  0.85909988  0.34256410     0.09300
Cu152      Cu  0.96900101  0.90560455  0.41426480     0.44200
Cu153      Cu  0.90258996  0.87940210  0.41381367     0.42000
Cu154      Cu  0.92708008  0.91910687  0.47743902     0.43900
N155        N  0.98192166  0.92460815  0.45312549    -0.34300
N156        N  0.96649427  0.92974469  0.47654107    -0.28500
C157        C  0.98035632  0.94312742  0.49764414    -0.04600
C158        C  0.00585002  0.94647636  0.48703351     0.07600
C159        C  0.00595046  0.93461303  0.45856264     0.01400
H160        H  0.97233168  0.95022295  0.51893005     0.09000
H161        H  0.02195459  0.93414338  0.44235940     0.08100
N162        N  0.88865945  0.90566752  0.47330353    -0.35700
N163        N  0.87986989  0.89075592  0.45073963    -0.27900
C164        C  0.85421044  0.88559426  0.45528052    -0.03200
C165        C  0.84633278  0.89803893  0.48191109     0.05500
C166        C  0.86882439  0.91045515  0.49268487     0.03500
H167        H  0.84237504  0.87345386  0.44030177     0.08700
H168        H  0.87064172  0.92243134  0.51299233     0.07500
N169        N  0.67091874  0.91226850  0.65533996    -0.26900
N170        N  0.64969973  0.92728475  0.65576873    -0.34800
C171        C  0.64109115  0.92955494  0.68450914     0.01400
C172        C  0.65755098  0.91511583  0.70318382     0.07500
C173        C  0.67634199  0.90443460  0.68394864    -0.05600
H174        H  0.62421299  0.94110329  0.69132963     0.08100
H175        H  0.69322113  0.89266844  0.69035774     0.09300
Cu176      Cu  0.63376401  0.94496360  0.61777881     0.44200
Cu177      Cu  0.69239155  0.90557182  0.61601919     0.42000
Cu178      Cu  0.66886995  0.93964864  0.54734472     0.43900
N179        N  0.62054116  0.96119563  0.57758789    -0.34300
N180        N  0.63335259  0.95952219  0.55153576    -0.28500
C181        C  0.61920968  0.97171331  0.52978094    -0.04600
C182        C  0.59639885  0.98164131  0.54286871     0.07600
C183        C  0.59791797  0.97426855  0.57318683     0.01400
H184        H  0.62497709  0.97294078  0.50613160     0.09000
H185        H  0.58327194  0.97725671  0.59070314     0.08100
N186        N  0.70434062  0.91950653  0.55048540    -0.35700
N187        N  0.71263116  0.90701754  0.57512319    -0.27900
C188        C  0.73705902  0.89787081  0.57015819    -0.03200
C189        C  0.74473178  0.90519608  0.54113086     0.05500
C190        C  0.72332877  0.91860446  0.52923271     0.03500
H191        H  0.74857892  0.88729925  0.58689723     0.08700
H192        H  0.72213500  0.92818691  0.50729090     0.07500
N193        N  0.16556799  0.07670917  0.65367437    -0.26900
N194        N  0.14127765  0.06752520  0.65257829    -0.34800
C195        C  0.13056438  0.06917093  0.68041283     0.01400
C196        C  0.14896215  0.07994506  0.70016320     0.07500
C197        C  0.17100688  0.08445645  0.68235744    -0.05600
H198        H  0.11093693  0.06251255  0.68594748     0.08100
H199        H  0.18995824  0.09176580  0.68982969     0.09300
Cu200      Cu  0.12442994  0.05109579  0.61407534     0.44200
Cu201      Cu  0.19021871  0.07624447  0.61624234     0.42000
Cu202      Cu  0.16522936  0.04340179  0.54749997     0.43900
N203        N  0.11191828  0.03278493  0.57450117    -0.34300
N204        N  0.12680341  0.02958367  0.55013559    -0.28500
C205        C  0.11305921  0.01611016  0.52896541    -0.04600
C206        C  0.08822882  0.01082338  0.54050049     0.07600
C207        C  0.08837978  0.02152064  0.56954039     0.01400
H208        H  0.12062243  0.01048882  0.50688162     0.09000
H209        H  0.07281939  0.02053902  0.58628663     0.08100
N210        N  0.20257990  0.05978117  0.55151743    -0.35700
N211        N  0.21134879  0.07177080  0.57632260    -0.27900
C212        C  0.23630456  0.07945518  0.57177294    -0.03200
C213        C  0.24375397  0.07206798  0.54266997     0.05500
C214        C  0.22183842  0.05953342  0.53053357     0.03500
H215        H  0.24824312  0.08942535  0.58865689     0.08700
H216        H  0.22020529  0.05006066  0.50849884     0.07500
N217        N  0.42319680  0.09752036  0.37911317    -0.26900
N218        N  0.44605212  0.08541307  0.37613973    -0.34800
C219        C  0.45428597  0.08789120  0.34724338     0.01400
C220        C  0.43590106  0.10256257  0.33114833     0.07500
C221        C  0.41635397  0.10814341  0.35219303    -0.05600
H222        H  0.47180263  0.07852553  0.33839365     0.08100
H223        H  0.39808639  0.11847512  0.34809373     0.09300
Cu224      Cu  0.46447468  0.06473073  0.41084559     0.44200
Cu225      Cu  0.40100052  0.09637824  0.41857323     0.42000
Cu226      Cu  0.42816322  0.05824830  0.48091823     0.43900
N227        N  0.47923423  0.04619685  0.44930089    -0.34300
N228        N  0.46604635  0.04416902  0.47509404    -0.28500
C229        C  0.48127955  0.03215333  0.49592321    -0.04600
C230        C  0.50517905  0.02608094  0.48254358     0.07600
C231        C  0.50319687  0.03543291  0.45299123     0.01400
H232        H  0.47542630  0.02828418  0.51915820     0.09000
H233        H  0.51833384  0.03526327  0.43569438     0.08100
N234        N  0.39024140  0.07312645  0.48038955    -0.35700
N235        N  0.38052122  0.08746232  0.45794563    -0.27900
C236        C  0.35510839  0.09268606  0.46375381    -0.03200
C237        C  0.34838992  0.08107587  0.49122850     0.05500
C238        C  0.37123000  0.06871947  0.50097901     0.03500
H239        H  0.34228867  0.10347549  0.44855267     0.08700
H240        H  0.37364851  0.05627367  0.52076993     0.07500
N241        N  0.43435274  0.12377409  0.15231968    -0.30100
N242        N  0.44443757  0.09973366  0.15334314    -0.34800
C243        C  0.44390013  0.09097348  0.18213677     0.01400
C244        C  0.43268833  0.11014847  0.20017203     0.07500
C245        C  0.42687987  0.13076490  0.18066667    -0.05600
H246        H  0.45238786  0.07254736  0.18966310     0.08100
H247        H  0.41957644  0.15005295  0.18695326     0.09300
Cu248      Cu  0.46174674  0.08010864  0.11735891     0.44200
Cu249      Cu  0.43508695  0.14739472  0.11343952     0.42000
Cu250      Cu  0.46953490  0.11703756  0.04992686     0.43900
N251        N  0.48016784  0.06504611  0.07927355    -0.34300
N252        N  0.48302378  0.07899057  0.05418188    -0.28500
C253        C  0.49518763  0.06425743  0.03307847    -0.04600
C254        C  0.50040594  0.03975776  0.04552311     0.07600
C255        C  0.49046313  0.04093181  0.07488603     0.01400
H256        H  0.49967023  0.07086484  0.01026653     0.09000
H257        H  0.48995175  0.02524153  0.09153204     0.08100
N258        N  0.45572555  0.15516395  0.04970815    -0.35700
N259        N  0.44294912  0.16651565  0.07239464    -0.27900
C260        C  0.43807327  0.19177085  0.06481637    -0.03200
C261        C  0.44820225  0.19641740  0.03591295     0.05500
C262        C  0.45941823  0.17270866  0.02733304     0.03500
H263        H  0.42836899  0.20583260  0.07953059     0.08700
H264        H  0.47059636  0.16862146  0.00691191     0.07500
N265        N  0.46238985  0.36285043  0.85055962    -0.26900
N266        N  0.47249091  0.38680981  0.84901253    -0.34800
C267        C  0.47223122  0.39488278  0.81991777     0.01400
C268        C  0.46162793  0.37500975  0.80206262     0.07500
C269        C  0.45544877  0.35501659  0.82234541    -0.05600
H270        H  0.47945009  0.41381231  0.81232581     0.08100
H271        H  0.44620688  0.33631811  0.81714918     0.09300
Cu272      Cu  0.48654626  0.40764263  0.88611525     0.44200
Cu273      Cu  0.45889545  0.34210252  0.89108337     0.42000
Cu274      Cu  0.48675015  0.37380704  0.95816146     0.43900
N275        N  0.50039521  0.42429823  0.92602099    -0.34300
N276        N  0.50046827  0.41188605  0.95243156    -0.28500
C277        C  0.51032704  0.42801728  0.97390487    -0.04600
C278        C  0.51709114  0.45170094  0.96030681     0.07600
C279        C  0.51028090  0.44864769  0.92993418     0.01400
H280        H  0.51181149  0.42298092  0.99778489     0.09000
H281        H  0.51235110  0.46302967  0.91195168     0.08100
N282        N  0.47105139  0.33615702  0.95813148    -0.35700
N283        N  0.46027880  0.32492101  0.93395979    -0.27900
C284        C  0.45224780  0.30056902  0.94148851    -0.03200
C285        C  0.45831469  0.29606282  0.97190590     0.05500
C286        C  0.47041639  0.31914976  0.98155949     0.03500
H287        H  0.44305147  0.28700285  0.92568851     0.08700
H288        H  0.47911287  0.32314498  0.00360532     0.07500
N289        N  0.17871673  0.41789396  0.34581005    -0.26900
N290        N  0.15932519  0.43515259  0.34404451    -0.34800
C291        C  0.15088844  0.43663119  0.31513693     0.01400
C292        C  0.16544909  0.41925034  0.29778167     0.07500
C293        C  0.18299053  0.40765619  0.31791668    -0.05600
H294        H  0.13520951  0.44936967  0.30735130     0.08100
H295        H  0.19817697  0.39344111  0.31256793     0.09300
Cu296      Cu  0.14486743  0.45586273  0.38073244     0.44200
Cu297      Cu  0.19933573  0.41139417  0.38594025     0.42000
Cu298      Cu  0.18083655  0.45330268  0.45096207     0.43900
N299        N  0.13206985  0.47342910  0.42032169    -0.34300
N300        N  0.14551239  0.47324502  0.44605845    -0.28500
C301        C  0.13156473  0.48592408  0.46754415    -0.04600
C302        C  0.10779179  0.49398106  0.45488027     0.07600
C303        C  0.10908896  0.48582029  0.42475392     0.01400
H304        H  0.13843026  0.48882357  0.49064102     0.09000
H305        H  0.09414078  0.48799673  0.40737551     0.08100
N306        N  0.21364011  0.42904347  0.44991317    -0.35700
N307        N  0.21990909  0.41355656  0.42676408    -0.27900
C308        C  0.24297795  0.40176243  0.43281445    -0.03200
C309        C  0.25176145  0.41015253  0.46112572     0.05500
C310        C  0.23259631  0.42748073  0.47125044     0.03500
H311        H  0.25309489  0.38880969  0.41714220     0.08700
H312        H  0.23302437  0.43931190  0.49178679     0.07500
N313        N  0.43225898  0.38405944  0.62470825    -0.26900
N314        N  0.45567154  0.39545292  0.62553968    -0.34800
C315        C  0.46480412  0.39498592  0.65426202     0.01400
C316        C  0.44639980  0.38251966  0.67225622     0.07500
C317        C  0.42598621  0.37581609  0.65291907    -0.05600
H318        H  0.48317021  0.40372522  0.66165888     0.08100
H319        H  0.40748713  0.36676556  0.65910237     0.09300
Cu320      Cu  0.47381088  0.41278364  0.58841589     0.44200
Cu321      Cu  0.40872710  0.38309756  0.58607311     0.42000
Cu322      Cu  0.43606787  0.41536339  0.51944682     0.43900
N323        N  0.48740903  0.43008581  0.54877773    -0.34300
N324        N  0.47349853  0.43087965  0.52335816    -0.28500
C325        C  0.48736301  0.44355415  0.50188649    -0.04600
C326        C  0.51113887  0.45141279  0.51446347     0.07600
C327        C  0.51055319  0.44227008  0.54418626     0.01400
H328        H  0.48066556  0.44646992  0.47872113     0.09000
H329        H  0.52571749  0.44450197  0.56131775     0.08100
N330        N  0.39794415  0.40144634  0.52200629    -0.35700
N331        N  0.38792131  0.38957110  0.54609717    -0.27900
C332        C  0.36216590  0.38520115  0.54117403    -0.03200
C333        C  0.35565490  0.39473996  0.51255301     0.05500
C334        C  0.37888674  0.40500095  0.50119868     0.03500
H335        H  0.34897657  0.37661714  0.55771007     0.08700
H336        H  0.38153278  0.41574255  0.48015898     0.07500
N337        N  0.12866219  0.38627887  0.12776742    -0.26900
N338        N  0.11736483  0.40969559  0.12940584    -0.34800
C339        C  0.12554456  0.42194561  0.15484207     0.01400
C340        C  0.14315134  0.40570808  0.17003333     0.07500
C341        C  0.14449447  0.38315340  0.15211061    -0.05600
H342        H  0.11779376  0.44065230  0.16256991     0.08100
H343        H  0.15523416  0.36526030  0.15702384     0.09300
Cu344      Cu  0.08956514  0.42376375  0.09887870     0.44200
Cu345      Cu  0.11943473  0.35831002  0.09480405     0.42000
Cu346      Cu  0.07167480  0.37998349  0.03857153     0.43900
N347        N  0.06339514  0.43405689  0.06464661    -0.34300
N348        N  0.05762662  0.41817097  0.04176188    -0.28500
C349        C  0.04156006  0.43076272  0.02230685    -0.04600
C350        C  0.03631222  0.45578215  0.03374585     0.07600
C351        C  0.05078839  0.45708835  0.06063582     0.01400
H352        H  0.03496099  0.42234732  0.00096652     0.09000
H353        H  0.05237505  0.47364043  0.07609553     0.08100
N354        N  0.08619360  0.34193357  0.04113697    -0.35700
N355        N  0.10371960  0.33388554  0.06135310    -0.27900
C356        C  0.10873136  0.30815105  0.05656154    -0.03200
C357        C  0.09345132  0.29952338  0.03224759     0.05500
C358        C  0.07953294  0.32160787  0.02307215     0.03500
H359        H  0.12282917  0.29680014  0.06955454     0.08700
H360        H  0.06539701  0.32284530  0.00468142     0.07500
N361        N  0.11898985  0.11387099  0.87228298    -0.26900
N362        N  0.11869062  0.08819445  0.87726304    -0.34800
C363        C  0.12584030  0.07554562  0.85169303     0.01400
C364        C  0.13062348  0.09410098  0.82929707     0.07500
C365        C  0.12638620  0.11822983  0.84331963    -0.05600
H366        H  0.12666352  0.05432164  0.84946555     0.08100
H367        H  0.12731094  0.13747195  0.83281952     0.09300
Cu368      Cu  0.10482747  0.07099473  0.91674471     0.44200
Cu369      Cu  0.10712060  0.14148567  0.90435269     0.42000
Cu370      Cu  0.07470217  0.11469146  0.97112357     0.43900
N371        N  0.08239928  0.05799198  0.95294814    -0.34300
N372        N  0.07036079  0.07402877  0.97208642    -0.28500
C373        C  0.05532656  0.05967302  0.99095267    -0.04600
C374        C  0.05792465  0.03317910  0.98338167     0.07600
C375        C  0.07560367  0.03300975  0.95930757     0.01400
H376        H  0.04291958  0.06807914  0.00843321     0.09000
H377        H  0.08309656  0.01614120  0.94699441     0.08100
N378        N  0.08327631  0.15437905  0.96548341    -0.35700
N379        N  0.09472989  0.16418142  0.94098024    -0.27900
C380        C  0.09813676  0.19026179  0.94484599    -0.03200
C381        C  0.08841253  0.19725563  0.97318428     0.05500
C382        C  0.07927902  0.17394490  0.98567164     0.03500
H383        H  0.10793128  0.20296341  0.92866281     0.08700
H384        H  0.07061598  0.17132694  0.00794008     0.07500
C385        C  0.09523301  0.22508567  0.01930702    -0.11900
C386        C  0.08949019  0.22348024  0.98806471     0.05100
C387        C  0.08548546  0.24695726  0.97153067    -0.07200
C388        C  0.08723226  0.27132338  0.98641036    -0.07900
C389        C  0.09254254  0.27302130  0.01778307    -0.02500
C390        C  0.09670355  0.24948055  0.03432214     0.04400
N391        N  0.10144718  0.24979697  0.06646622     0.66900
H392        H  0.09849367  0.20720284  0.03228258     0.15800
H393        H  0.08413409  0.28909988  0.97321011     0.15500
N394        N  0.07843511  0.24642011  0.93995710     0.74600
O395        O  0.08378835  0.25787726  0.08436399    -0.38900
O396        O  0.12161617  0.23861090  0.07717741    -0.38800
O397        O  0.05659597  0.23681208  0.93186417    -0.39500
O398        O  0.09222450  0.25872151  0.92079429    -0.39600
C399        C  0.15817794  0.38734318  0.21988261    -0.11900
C400        C  0.15363460  0.40953340  0.20141852     0.05100
C401        C  0.15617277  0.43496107  0.21448629    -0.07200
C402        C  0.16007063  0.43746004  0.24595322    -0.07900
C403        C  0.16292815  0.41525952  0.26458710    -0.02500
C404        C  0.16279668  0.38995826  0.25125421     0.04400
N405        N  0.16518683  0.36670238  0.26949567     0.66900
H406        H  0.15639350  0.36766258  0.21043666     0.15800
H407        H  0.16135708  0.45700697  0.25594810     0.15500
N408        N  0.15558891  0.45834984  0.19615527     0.74600
O409        O  0.14874915  0.36220722  0.29036448    -0.38900
O410        O  0.18167442  0.34914822  0.26239682    -0.38800
O411        O  0.14405257  0.47879867  0.20567809    -0.39500
O412        O  0.16923412  0.45963009  0.17220586    -0.39600
C413        C  0.29951406  0.40101680  0.45558992    -0.11900
C414        C  0.27789299  0.40490070  0.47492686     0.05100
C415        C  0.28197751  0.40471770  0.50677180    -0.07200
C416        C  0.30737293  0.40093679  0.51843309    -0.07900
C417        C  0.32898965  0.39705873  0.49906071    -0.02500
C418        C  0.32484135  0.39692473  0.46720955     0.04400
N419        N  0.34590609  0.39208022  0.44630487     0.66900
H420        H  0.29683467  0.40126788  0.43107646     0.15800
H421        H  0.31017436  0.40127991  0.54293236     0.15500
N422        N  0.26057952  0.40772938  0.52762180     0.74600
O423        O  0.35887617  0.37091568  0.44791411    -0.38900
O424        O  0.34950352  0.40738703  0.42406183    -0.38800
O425        O  0.24270637  0.39048256  0.52867290    -0.39500
O426        O  0.26129580  0.42566709  0.54758388    -0.39600
C427        C  0.45052978  0.40037041  0.75548064    -0.11900
C428        C  0.45694349  0.37600858  0.76872744     0.05100
C429        C  0.45841618  0.35333271  0.74993665    -0.07200
C430        C  0.45327854  0.35554119  0.71860012    -0.07900
C431        C  0.44739331  0.38000779  0.70558168    -0.02500
C432        C  0.44564882  0.40250865  0.72422503     0.04400
N433        N  0.43853842  0.42755751  0.71169335     0.66900
H434        H  0.44877873  0.41786173  0.76956878     0.15800
H435        H  0.45532961  0.33834713  0.70406314     0.15500
N436        N  0.46701646  0.32846965  0.76173754     0.74600
O437        O  0.41661993  0.43037563  0.69852201    -0.38900
O438        O  0.45304038  0.44740261  0.71611972    -0.38800
O439        O  0.45443452  0.30772202  0.75533605    -0.39500
O440        O  0.48910350  0.32670050  0.77478851    -0.39600
C441        C  0.45056130  0.24550012  0.03577015    -0.11900
C442        C  0.44940235  0.22183576  0.01919215     0.05100
C443        C  0.45074020  0.22291077  0.98702746    -0.07200
C444        C  0.45373222  0.24723180  0.97247091    -0.07900
C445        C  0.45475908  0.27096416  0.98895967    -0.02500
C446        C  0.45295915  0.26992769  0.02112701     0.04400
N447        N  0.45278806  0.29335747  0.03933624     0.66900
H448        H  0.44965735  0.24512041  0.06046127     0.15800
H449        H  0.45518634  0.24739630  0.94782643     0.15500
N450        N  0.44826455  0.19969535  0.96861386     0.74600
O451        O  0.43424214  0.30972178  0.03658563    -0.38900
O452        O  0.46895769  0.29586524  0.06102464    -0.38800
O453        O  0.42752444  0.18605063  0.96981469    -0.39500
O454        O  0.46515266  0.19479561  0.94832949    -0.39600
C455        C  0.45736372  0.10978633  0.24864679    -0.11900
C456        C  0.43305296  0.11054410  0.23366329     0.05100
C457        C  0.40974294  0.11083337  0.25077643    -0.07200
C458        C  0.41105530  0.10941944  0.28262781    -0.07900
C459        C  0.43543267  0.10779062  0.29783701    -0.02500
C460        C  0.45886172  0.10900869  0.28048565     0.04400
N461        N  0.48424124  0.11034139  0.29471990     0.66900
H462        H  0.47537273  0.11025820  0.23542597     0.15800
H463        H  0.39282441  0.10830665  0.29532437     0.15500
N464        N  0.38465455  0.11065897  0.23601437     0.74600
O465        O  0.50292031  0.09634088  0.28486709    -0.38900
O466        O  0.48887825  0.12778583  0.31457418    -0.38800
O467        O  0.37565848  0.08943202  0.22514750    -0.39500
O468        O  0.37028277  0.13091791  0.23681510    -0.39600
C469        C  0.15293301  0.10704027  0.78114480    -0.11900
C470        C  0.13636840  0.08945243  0.79663881     0.05100
C471        C  0.12514281  0.06813116  0.78042471    -0.07200
C472        C  0.13012035  0.06525630  0.74930451    -0.07900
C473        C  0.14585393  0.08335957  0.73351179    -0.02500
C474        C  0.15777235  0.10423486  0.74984911     0.04400
N475        N  0.17379822  0.12342572  0.73490347     0.66900
H476        H  0.16184705  0.12340344  0.79332746     0.15800
H477        H  0.12110962  0.04886690  0.73728139     0.15500
N478        N  0.10741388  0.05005835  0.79463751     0.74600
O479        O  0.16362783  0.13897896  0.71582142    -0.38900
O480        O  0.19718162  0.12714249  0.74365624    -0.38800
O481        O  0.08491387  0.05779642  0.80283004    -0.39500
O482        O  0.11261955  0.02573331  0.79478002    -0.39600
C483        C  0.29238848  0.07412907  0.54823911    -0.11900
C484        C  0.27027431  0.07500766  0.52904605     0.05100
C485        C  0.27405822  0.07830838  0.49743056    -0.07200
C486        C  0.29961292  0.08028094  0.48577906    -0.07900
C487        C  0.32175917  0.07961311  0.50499742    -0.02500
C488        C  0.31793164  0.07670934  0.53672069     0.04400
N489        N  0.33953592  0.07730018  0.55773242     0.66900
H490        H  0.28987729  0.07159459  0.57258964     0.15800
H491        H  0.30205247  0.08242604  0.46137334     0.15500
N492        N  0.25225296  0.08076969  0.47695796     0.74600
O493        O  0.35445446  0.09717917  0.55881969    -0.38900
O494        O  0.34157816  0.05971495  0.57790345    -0.38800
O495        O  0.23712859  0.10041950  0.47897183    -0.39500
O496        O  0.25024406  0.06542339  0.45439868    -0.39600
C497        C  0.56864762  0.98822583  0.49667872    -0.11900
C498        C  0.57393105  0.99462312  0.52723600     0.05100
C499        C  0.55655269  0.01178595  0.54278612    -0.07200
C500        C  0.53391025  0.02101208  0.52799177    -0.07900
C501        C  0.52851467  0.01434886  0.49758605    -0.02500
C502        C  0.54614014  0.99771363  0.48182390     0.04400
N503        N  0.54071865  0.98897789  0.45140149     0.66900
H504        H  0.58142008  0.97471077  0.48453837     0.15800
H505        H  0.52097433  0.03444709  0.54004179     0.15500
N506        N  0.56220289  0.02116145  0.57293812     0.74600
O507        O  0.55818633  0.99081616  0.43112370    -0.38900
O508        O  0.51977829  0.97650455  0.44569697    -0.38800
O509        O  0.58394074  0.03222421  0.57854104    -0.39500
O510        O  0.54435599  0.02145510  0.59289242    -0.39600
C511        C  0.02068939  0.98395235  0.51942040    -0.11900
C512        C  0.02731905  0.96201707  0.50146080     0.05100
C513        C  0.05421277  0.95645368  0.49614739    -0.07200
C514        C  0.07359467  0.97328932  0.50806364    -0.07900
C515        C  0.06691664  0.99518602  0.52603062    -0.02500
C516        C  0.04006290  0.00068016  0.53145680     0.04400
N517        N  0.03203425  0.02387090  0.54769346     0.66900
H518        H  0.00018351  0.98890091  0.52307832     0.15800
H519        H  0.09413942  0.96846441  0.50442125     0.15500
N520        N  0.06228366  0.93309631  0.48026042     0.74600
O521        O  0.04030439  0.04623047  0.53953417    -0.38900
O522        O  0.01427770  0.02241419  0.56768137    -0.38800
O523        O  0.08024589  0.93430901  0.46049685    -0.39500
O524        O  0.05397402  0.91083092  0.48870580    -0.39600
C525        C  0.81863608  0.90102993  0.52834832    -0.11900
C526        C  0.81998873  0.89823885  0.49655287     0.05100
C527        C  0.79625878  0.89632015  0.47977529    -0.07200
C528        C  0.77206163  0.89800453  0.49492865    -0.07900
C529        C  0.77081228  0.90183575  0.52656700    -0.02500
C530        C  0.79449872  0.90310867  0.54341435     0.04400
N531        N  0.79459132  0.90813083  0.57550888     0.66900
H532        H  0.83654630  0.90223664  0.54174729     0.15800
H533        H  0.75404688  0.89684680  0.48168615     0.15500
N534        N  0.79619563  0.89398191  0.44730117     0.74600
O535        O  0.80621525  0.89243381  0.59328522    -0.38900
O536        O  0.78658006  0.93003595  0.58553019    -0.38800
O537        O  0.78510155  0.87449037  0.43478549    -0.39500
O538        O  0.80355496  0.91316207  0.43116017    -0.39600
C539        C  0.53631484  0.97559054  0.02850258    -0.11900
C540        C  0.53142160  0.97278696  0.99716900     0.05100
C541        C  0.51588295  0.99181029  0.98212150    -0.07200
C542        C  0.50650804  0.01361972  0.99831432    -0.07900
C543        C  0.51180700  0.01676465  0.02949590    -0.02500
C544        C  0.52699415  0.99751383  0.04470903     0.04400
N545        N  0.53466649  0.00079380  0.07591426     0.66900
H546        H  0.54873002  0.96143516  0.04016541     0.15800
H547        H  0.49421612  0.02780059  0.98652697     0.15500
N548        N  0.50853784  0.98873875  0.95076802     0.74600
O549        O  0.53158951  0.98214533  0.09455666    -0.38900
O550        O  0.54757230  0.02092359  0.08393117    -0.38800
O551        O  0.49723993  0.96789224  0.94198381    -0.39500
O552        O  0.51056914  0.00791045  0.93264161    -0.39600
C553        C  0.64935470  0.93627028  0.75309607    -0.11900
C554        C  0.65601926  0.91348440  0.73672419     0.05100
C555        C  0.66113351  0.88991850  0.75266522    -0.07200
C556        C  0.65832198  0.88940536  0.78441471    -0.07900
C557        C  0.65035531  0.91191771  0.80073615    -0.02500
C558        C  0.64707373  0.93595078  0.78486788     0.04400
N559        N  0.64230411  0.96030681  0.80060106     0.66900
H560        H  0.64652513  0.95473387  0.74109151     0.15800
H561        H  0.66083052  0.87073828  0.79602948     0.15500
N562        N  0.66730244  0.86593661  0.73690940     0.74600
O563        O  0.65651988  0.96679110  0.82302222    -0.38900
O564        O  0.62606675  0.97674850  0.78999255    -0.38800
O565        O  0.68636336  0.85191902  0.74570323    -0.39500
O566        O  0.65180622  0.85706864  0.71684052    -0.39600
C567        C  0.52024980  0.50057974  0.96408680    -0.11900
C568        C  0.52769227  0.47571709  0.97520853     0.05100
C569        C  0.54411627  0.47431764  0.00116979    -0.07200
C570        C  0.55201635  0.49753077  0.01580975    -0.07900
C571        C  0.54458488  0.52236630  0.00472643    -0.02500
C572        C  0.52832968  0.52382549  0.97867703     0.04400
N573        N  0.51876892  0.54859912  0.96769779     0.66900
H574        H  0.50721006  0.50201573  0.94457086     0.15800
H575        H  0.56518960  0.49607294  0.03520162     0.15500
N576        N  0.55431818  0.44969275  0.01187694     0.74600
O577        O  0.52157773  0.55465713  0.94002323    -0.38900
O578        O  0.50476767  0.56295200  0.98468994    -0.38800
O579        O  0.56777524  0.43533847  0.99430109    -0.39500
O580        O  0.55297914  0.44399407  0.03980820    -0.39600
C581        C  0.60262492  0.73223190  0.99789532    -0.11900
C582        C  0.62780992  0.72224126  0.00400257     0.05100
C583        C  0.64985979  0.73882445  0.00090643    -0.07200
C584        C  0.64646745  0.76478734  0.99089701    -0.07900
C585        C  0.62127969  0.77469413  0.98454741    -0.02500
C586        C  0.59913864  0.75825693  0.98830599     0.04400
N587        N  0.57315004  0.76731284  0.98129547     0.66900
H588        H  0.58548867  0.71969087  0.00049869     0.15800
H589        H  0.66358958  0.77734292  0.98825136     0.15500
N590        N  0.67580940  0.72935442  0.00699278     0.74600
O591        O  0.56739090  0.77392361  0.95439307    -0.38900
O592        O  0.55517991  0.76564247  0.00099543    -0.38800
O593        O  0.68810058  0.71679615  0.98667529    -0.39500
O594        O  0.68781807  0.73692435  0.03063561    -0.39600
C595        C  0.05976291  0.52115550  0.51391828    -0.11900
C596        C  0.04190535  0.53487504  0.49540020     0.05100
C597        C  0.04613320  0.53545340  0.46364909    -0.07200
C598        C  0.06764184  0.52201315  0.45119248    -0.07900
C599        C  0.08532583  0.50782952  0.46961915    -0.02500
C600        C  0.08104030  0.50736682  0.50146356     0.04400
N601        N  0.09686536  0.49168010  0.52139350     0.66900
H602        H  0.05644456  0.51989232  0.53827869     0.15800
H603        H  0.07076787  0.52328474  0.42681504     0.15500
N604        N  0.02940594  0.55033483  0.44382337     0.74600
O605        O  0.10797271  0.50222592  0.54410182    -0.38900
O606        O  0.09624594  0.46687293  0.51921559    -0.38800
O607        O  0.02738321  0.57495794  0.44725522    -0.39500
O608        O  0.01918640  0.53946572  0.42076086    -0.39600
C609        C  0.55024871  0.49504751  0.46064937    -0.11900
C610        C  0.57624805  0.48843008  0.46842811     0.05100
C611        C  0.58057819  0.46969748  0.49175260    -0.07200
C612        C  0.55904041  0.45874018  0.50709599    -0.07900
C613        C  0.53309926  0.46529193  0.49916229    -0.02500
C614        C  0.52874183  0.48389716  0.47578114     0.04400
N615        N  0.50277420  0.49272356  0.46810617     0.66900
H616        H  0.54647032  0.50983382  0.44339169     0.15800
H617        H  0.56265308  0.44397918  0.52445008     0.15500
N618        N  0.60645570  0.46036053  0.49898519     0.74600
O619        O  0.48808257  0.50233143  0.48844487    -0.38900
O620        O  0.49575336  0.49402237  0.44054484    -0.38800
O621        O  0.61357521  0.45835334  0.52645362    -0.39500
O622        O  0.62072387  0.45060544  0.47833473    -0.39600
C623        C  0.66693275  0.60322631  0.25120310    -0.11900
C624        C  0.64489891  0.59850445  0.26976865     0.05100
C625        C  0.61958992  0.59821043  0.25616094    -0.07200
C626        C  0.61723292  0.60008776  0.22448177    -0.07900
C627        C  0.63934821  0.60358479  0.20594671    -0.02500
C628        C  0.66436004  0.60585274  0.21956888     0.04400
N629        N  0.68750585  0.60888162  0.20146095     0.66900
H630        H  0.68655063  0.60349856  0.26095657     0.15800
H631        H  0.59776641  0.59950152  0.21427469     0.15500
N632        N  0.59605698  0.59696584  0.27406090     0.74600
O633        O  0.70145198  0.62933648  0.20421697    -0.38900
O634        O  0.69577660  0.58980163  0.18567172    -0.38800
O635        O  0.59257137  0.61313850  0.29557392    -0.39500
O636        O  0.57738847  0.58203038  0.26606375    -0.39600
C637        C  0.77987695  0.56314208  0.49726544    -0.11900
C638        C  0.77881400  0.56556572  0.46541812     0.05100
C639        C  0.80247527  0.56992042  0.44930893    -0.07200
C640        C  0.82632655  0.57174763  0.46526747    -0.07900
C641        C  0.82742500  0.56871066  0.49704309    -0.02500
C642        C  0.80377025  0.56428463  0.51311479     0.04400
N643        N  0.80364437  0.55956881  0.54524764     0.66900
H644        H  0.76198001  0.55991153  0.51013535     0.15800
H645        H  0.84424259  0.57521914  0.45250895     0.15500
N646        N  0.80295644  0.57130096  0.41675175     0.74600
O647        O  0.78932378  0.57343476  0.56242164    -0.38900
O648        O  0.81461084  0.53920663  0.55578428    -0.38800
O649        O  0.81361725  0.59074270  0.40379469    -0.39500
O650        O  0.79636501  0.55145533  0.40110532    -0.39600
C651        C  0.99005101  0.49393470  0.98106485    -0.11900
C652        C  0.99595270  0.52007909  0.98892711     0.05100
C653        C  0.01414926  0.52492116  0.01264141    -0.07200
C654        C  0.02625047  0.50368350  0.02747073    -0.07900
C655        C  0.02078521  0.47740928  0.01928179    -0.02500
C656        C  0.00170320  0.47264452  0.99630072     0.04400
N657        N  0.99284887  0.44654216  0.98910573     0.66900
H658        H  0.97544259  0.48995390  0.96357423     0.15800
H659        H  0.04096400  0.50802194  0.04468133     0.15500
N660        N  0.02181677  0.55118420  0.02076519     0.74600
O661        O  0.98345231  0.43211052  0.00979604    -0.38900
O662        O  0.99073333  0.43938880  0.96164146    -0.38800
O663        O  0.02094799  0.55850214  0.04824784    -0.39500
O664        O  0.03255832  0.56589052  0.00124872    -0.39600
C665        C  0.92807029  0.61732300  0.71822878    -0.11900
C666        C  0.94392192  0.59770976  0.70519702     0.05100
C667        C  0.95974789  0.58194791  0.72435187    -0.07200
C668        C  0.95908370  0.58588620  0.75591862    -0.07900
C669        C  0.94264562  0.60500055  0.76911920    -0.02500
C670        C  0.92721739  0.62109744  0.74982314     0.04400
N671        N  0.90976279  0.64061354  0.76180811     0.66900
H672        H  0.91593850  0.62968025  0.70374989     0.15800
H673        H  0.97130871  0.57351087  0.77024241     0.15500
N674        N  0.97551870  0.56096652  0.71239811     0.74600
O675        O  0.91266840  0.66448028  0.75447536    -0.38900
O676        O  0.88932880  0.63361317  0.77592610    -0.38800
O677        O  0.99963972  0.55962680  0.71912185    -0.39500
O678        O  0.96470834  0.54194626  0.69863703    -0.39600
C679        C  0.03477687  0.01351160  0.02788861    -0.11900
C680        C  0.04413384  0.01053145  0.99796235     0.05100
C681        C  0.03971378  0.98620745  0.98285078    -0.07200
C682        C  0.02621246  0.96591015  0.99775100    -0.07900
C683        C  0.01636620  0.96920743  0.02734377    -0.02500
C684        C  0.02069991  0.99344313  0.04246547     0.04400
N685        N  0.00984017  0.99860859  0.07194336     0.66900
H686        H  0.03795838  0.03183696  0.04011722     0.15800
H687        H  0.02321659  0.94739512  0.98580904     0.15500
N688        N  0.04775995  0.98192077  0.95204349     0.74600
O689        O  0.02450352  0.00678859  0.09320258    -0.38900
O690        O  0.98520744  0.99862011  0.07553431    -0.38800
O691        O  0.06315930  0.96315656  0.94582695    -0.39500
O692        O  0.03621934  0.99391500  0.93069473    -0.39600
C693        C  0.92857160  0.86317028  0.24521066    -0.11900
C694        C  0.95396735  0.86377225  0.23292638     0.05100
C695        C  0.97571618  0.86696747  0.25247658    -0.07200
C696        C  0.97166466  0.86999833  0.28378195    -0.07900
C697        C  0.94619350  0.87036395  0.29628790    -0.02500
C698        C  0.92435680  0.86710005  0.27645040     0.04400
N699        N  0.89784362  0.86991725  0.28689776     0.66900
H700        H  0.91171372  0.86145154  0.23011031     0.15800
H701        H  0.98879477  0.87178209  0.29839041     0.15500
N702        N  0.00205830  0.86657631  0.24094952     0.74600
O703        O  0.89033071  0.89168854  0.29780858    -0.38900
O704        O  0.88091268  0.85265450  0.28010277    -0.38800
O705        O  0.01786503  0.88487192  0.24775377    -0.39500
O706        O  0.01025594  0.84680275  0.22627965    -0.39600
C707        C  0.93879690  0.77283925  0.98090307    -0.11900
C708        C  0.92465065  0.77479345  0.00831455     0.05100
C709        C  0.91149005  0.75210142  0.01934731    -0.07200
C710        C  0.91475100  0.72787224  0.00437379    -0.07900
C711        C  0.92968090  0.72590088  0.97768640    -0.02500
C712        C  0.94139019  0.74877255  0.96557499     0.04400
N713        N  0.95761553  0.74755846  0.93901725     0.66900
H714        H  0.94926368  0.78975540  0.97196607     0.15800
H715        H  0.90485648  0.71051843  0.01316455     0.15500
N716        N  0.89399462  0.75343315  0.04488402     0.74600
O717        O  0.95193795  0.76127518  0.91597338    -0.38900
O718        O  0.97929882  0.73546820  0.93996529    -0.38800
O719        O  0.87586763  0.77043405  0.04540849    -0.39500
O720        O  0.89453983  0.73571222  0.06502438    -0.39600
loop_ 
_geom_bond_atom_site_label_1 
_geom_bond_atom_site_label_2 
_geom_bond_distance 
_geom_bond_site_symmetry_2 
_ccdc_geom_bond_type 
N1            N2   1.321       .  A
N1            C5   1.344       .  A
N1           Cu9   2.064       .  S
N2            C3   1.343       .  A
N2           Cu8   2.071       .  S
C3            C4   1.383       .  A
C3            H6   1.082       .  S
C4            C5   1.382       .  A
C4          C694   1.474       .  S
C5            H7   1.081       .  S
Cu8          N11   2.071       .  S
Cu9          N19   2.065       .  S
Cu10         N12   2.078       .  S
Cu10         N18   2.077       .  S
N11          N12   1.322       .  A
N11          C15   1.344   1_655  A
N12          C13   1.345       .  A
C13          C14   1.387   1_655  A
C13          H16   1.081       .  S
C14          C15   1.386       .  A
C14         C683   1.485       .  S
C15          H17   1.082       .  S
N18          N19   1.320       .  A
N18          C22   1.345       .  A
N19          C20   1.342       .  A
C20          C21   1.387       .  A
C20          H23   1.082       .  S
C21          C22   1.391       .  A
C21         C708   1.490       .  S
C22          H24   1.081   1_554  S
N25          N26   1.321       .  A
N25          C29   1.344       .  A
N25         Cu33   2.069       .  S
N26          C27   1.343       .  A
N26         Cu32   2.071       .  S
C27          C28   1.387       .  A
C27          H30   1.081       .  S
C28          C29   1.387       .  A
C28         C669   1.485       .  S
C29          H31   1.082       .  S
Cu32         N35   2.071       .  S
Cu33         N43   2.069       .  S
Cu34         N36   2.075       .  S
Cu34         N42   2.075       .  S
N35          N36   1.321       .  A
N35          C39   1.344       .  A
N36          C37   1.345       .  A
C37          C38   1.387       .  A
C37          H40   1.082   1_556  S
C38          C39   1.385       .  A
C38         C652   1.483       .  S
C39          H41   1.081       .  S
N42          N43   1.322       .  A
N42          C46   1.345       .  A
N43          C44   1.344       .  A
C44          C45   1.383       .  A
C44          H47   1.082       .  S
C45          C46   1.384       .  A
C45         C711   1.478       .  S
C46          H48   1.081   1_556  S
N49          N50   1.320       .  A
N49          C53   1.346       .  A
N49         Cu57   2.077       .  S
N50          C51   1.340       .  A
N50         Cu56   2.063       .  S
C51          C52   1.386       .  A
C51          H54   1.082       .  S
C52          C53   1.390       .  A
C52         C624   1.488       .  S
C53          H55   1.081       .  S
Cu56         N59   2.063       .  S
Cu57         N67   2.077       .  S
Cu58         N60   2.068       .  S
Cu58         N66   2.069       .  S
N59          N60   1.319       .  A
N59          C63   1.342       .  A
N60          C61   1.344       .  A
C61          C62   1.389       .  A
C61          H64   1.082       .  S
C62          C63   1.387       .  A
C62         C610   1.487       .  S
C63          H65   1.081       .  S
N66          N67   1.322       .  A
N66          C70   1.342       .  A
N67          C68   1.346       .  A
C68          C69   1.388       .  A
C68          H71   1.082       .  S
C69          C70   1.385       .  A
C69         C638   1.486       .  S
C70          H72   1.081       .  S
N73          N74   1.321       .  A
N73          C77   1.344       .  A
N73         Cu81   2.070       .  S
N74          C75   1.344       .  A
N74         Cu80   2.067       .  S
C75          C76   1.384       .  A
C75          H78   1.082       .  S
C76          C77   1.384       .  A
C76         C666   1.479       .  S
C77          H79   1.081       .  S
Cu80         N83   2.067       .  S
Cu81         N91   2.070       .  S
Cu82         N84   2.073       .  S
Cu82         N90   2.073       .  S
N83          N84   1.321       .  A
N83          C87   1.343   1_655  A
N84          C85   1.345       .  A
C85          C86   1.387   1_655  A
C85          H88   1.082       .  S
C86          C87   1.385       .  A
C86         C596   1.482       .  S
C87          H89   1.081       .  S
N90          N91   1.321       .  A
N90          C94   1.344       .  A
N91          C92   1.344       .  A
C92          C93   1.386       .  A
C92          H95   1.082       .  S
C93          C94   1.387       .  A
C93         C641   1.485       .  S
C94          H96   1.081       .  S
N97          N98   1.321       .  A
N97         C101   1.347       .  A
N97        Cu105   2.074       .  S
N98          C99   1.341       .  A
N98        Cu104   2.060       .  S
C99         C100   1.381       .  A
C99         H102   1.081       .  S
C100        C101   1.386       .  A
C100        C627   1.476       .  S
C101        H103   1.082       .  S
Cu104       N107   2.060       .  S
Cu105       N115   2.074       .  S
Cu106       N108   2.070       .  S
Cu106       N114   2.070       .  S
N107        N108   1.319       .  A
N107        C111   1.341       .  A
N108        C109   1.345       .  A
C109        C110   1.387       .  A
C109        H112   1.082   1_554  S
C110        C111   1.384       .  A
C110        C571   1.480       .  S
C111        H113   1.081       .  S
N114        N115   1.323       .  A
N114        C118   1.342       .  A
N115        C116   1.345       .  A
C116        C117   1.383       .  A
C116        H119   1.082       .  S
C117        C118   1.382       .  A
C117        C582   1.473       .  S
C118        H120   1.082   1_554  S
N121        N122   1.320       .  A
N121        C125   1.344       .  A
N121       Cu129   2.066       .  S
N122        C123   1.342       .  A
N122       Cu128   2.068       .  S
C123        C124   1.388       .  A
C123        H126   1.082       .  S
C124        C125   1.388       .  A
C124        C557   1.486       .  S
C125        H127   1.081       .  S
Cu128       N131   2.067       .  S
Cu129       N139   2.067       .  S
Cu130       N132   2.069       .  S
Cu130       N138   2.069       .  S
N131        N132   1.321       .  A
N131        C135   1.342       .  A
N132        C133   1.345       .  A
C133        C134   1.385       .  A
C133        H136   1.081   1_556  S
C134        C135   1.384       .  A
C134        C540   1.479       .  S
C135        H137   1.082       .  S
N138        N139   1.322       .  A
N138        C142   1.344       .  A
N139        C140   1.343       .  A
C140        C141   1.381       .  A
C140        H143   1.082       .  S
C141        C142   1.383       .  A
C141        C585   1.473       .  S
C142        H144   1.082   1_556  S
N145        N146   1.320       .  A
N145        C149   1.345       .  A
N145       Cu153   2.072       .  S
N146        C147   1.341       .  A
N146       Cu152   2.063       .  S
C147        C148   1.387       .  A
C147        H150   1.081       .  S
C148        C149   1.390       .  A
C148        C697   1.490       .  S
C149        H151   1.081       .  S
Cu152       N155   2.063       .  S
Cu153       N163   2.073       .  S
Cu154       N156   2.075       .  S
Cu154       N162   2.076       .  S
N155        N156   1.320       .  A
N155        C159   1.343   1_655  A
N156        C157   1.345       .  A
C157        C158   1.388   1_655  A
C157        H160   1.081       .  S
C158        C159   1.386       .  A
C158        C512   1.486       .  S
C159        H161   1.082       .  S
N162        N163   1.322       .  A
N162        C166   1.343       .  A
N163        C164   1.345       .  A
C164        C165   1.387       .  A
C164        H167   1.081       .  S
C165        C166   1.387       .  A
C165        C526   1.487       .  S
C166        H168   1.081       .  S
N169        N170   1.321       .  A
N169        C173   1.346       .  A
N169       Cu177   2.072       .  S
N170        C171   1.341       .  A
N170       Cu176   2.060       .  S
C171        C172   1.381       .  A
C171        H174   1.081       .  S
C172        C173   1.386       .  A
C172        C554   1.477       .  S
C173        H175   1.082       .  S
Cu176       N179   2.060       .  S
Cu177       N187   2.073       .  S
Cu178       N180   2.076       .  S
Cu178       N186   2.077       .  S
N179        N180   1.320       .  A
N179        C183   1.341       .  A
N180        C181   1.346       .  A
C181        C182   1.389       .  A
C181        H184   1.081       .  S
C182        C183   1.385       .  A
C182        C498   1.486       .  S
C183        H185   1.082       .  S
N186        N187   1.323       .  A
N186        C190   1.345       .  A
N187        C188   1.344       .  A
C188        C189   1.385       .  A
C188        H191   1.082       .  S
C189        C190   1.385       .  A
C189        C529   1.483       .  S
C190        H192   1.081       .  S
N193        N194   1.320       .  A
N193        C197   1.346       .  A
N193       Cu201   2.069       .  S
N194        C195   1.341       .  A
N194       Cu200   2.067       .  S
C195        C196   1.385       .  A
C195        H198   1.081       .  S
C196        C197   1.387       .  A
C196        C473   1.483       .  S
C197        H199   1.082       .  S
Cu200       N203   2.067       .  S
Cu201       N211   2.069       .  S
Cu202       N204   2.078       .  S
Cu202       N210   2.079       .  S
N203        N204   1.321       .  A
N203        C207   1.343       .  A
N204        C205   1.346       .  A
C205        C206   1.387       .  A
C205        H208   1.081       .  S
C206        C207   1.384       .  A
C206        C515   1.483   1_545  S
C207        H209   1.082       .  S
N210        N211   1.322       .  A
N210        C214   1.346       .  A
N211        C212   1.342       .  A
C212        C213   1.384       .  A
C212        H215   1.081       .  S
C213        C214   1.387       .  A
C213        C484   1.483       .  S
C214        H216   1.082       .  S
N217        N218   1.321       .  A
N217        C221   1.345       .  A
N217       Cu225   2.070       .  S
N218        C219   1.343       .  A
N218       Cu224   2.074       .  S
C219        C220   1.388       .  A
C219        H222   1.082       .  S
C220        C221   1.387       .  A
C220        C459   1.487       .  S
C221        H223   1.081       .  S
Cu224       N227   2.073       .  S
Cu225       N235   2.070       .  S
Cu226       N228   2.070       .  S
Cu226       N234   2.070       .  S
N227        N228   1.321       .  A
N227        C231   1.345       .  A
N228        C229   1.344       .  A
C229        C230   1.385       .  A
C229        H232   1.081       .  S
C230        C231   1.386       .  A
C230        C501   1.482       .  S
C231        H233   1.082       .  S
N234        N235   1.321       .  A
N234        C238   1.344       .  A
N235        C236   1.344       .  A
C236        C237   1.387       .  A
C236        H239   1.081       .  S
C237        C238   1.387       .  A
C237        C487   1.486       .  S
C238        H240   1.082       .  S
N241        N242   1.324       .  A
N241        C245   1.349       .  A
N241       Cu249   2.088       .  S
N242        C243   1.341       .  A
N242       Cu248   2.064       .  S
C243        C244   1.377       .  A
C243        H246   1.082       .  S
C244        C245   1.385       .  A
C244        C456   1.470       .  S
C245        H247   1.082       .  S
Cu248       N251   2.063       .  S
Cu249       N259   2.088       .  S
Cu250       N252   2.057       .  S
Cu250       N258   2.058       .  S
N251        N252   1.319       .  A
N251        C255   1.344       .  A
N252        C253   1.341       .  A
C253        C254   1.384       .  A
C253        H256   1.081       .  S
C254        C255   1.387       .  A
C254        C543   1.480       .  S
C255        H257   1.082       .  S
N258        N259   1.321       .  A
N258        C262   1.340       .  A
N259        C260   1.347       .  A
C260        C261   1.391       .  A
C260        H263   1.081       .  S
C261        C262   1.383       .  A
C261        C442   1.487       .  S
C262        H264   1.082       .  S
N265        N266   1.321       .  A
N265        C269   1.346       .  A
N265       Cu273   2.077       .  S
N266        C267   1.342       .  A
N266       Cu272   2.065       .  S
C267        C268   1.384       .  A
C267        H270   1.081       .  S
C268        C269   1.388       .  A
C268        C428   1.483       .  S
C269        H271   1.082       .  S
Cu272       N275   2.065       .  S
Cu273       N283   2.077       .  S
Cu274       N276   2.070       .  S
Cu274       N282   2.070       .  S
N275        N276   1.321       .  A
N275        C279   1.344       .  A
N276        C277   1.343       .  A
C277        C278   1.386       .  A
C277        H280   1.082       .  S
C278        C279   1.385       .  A
C278        C568   1.482       .  S
C279        H281   1.081       .  S
N282        N283   1.321       .  A
N282        C286   1.344       .  A
N283        C284   1.343       .  A
C284        C285   1.389       .  A
C284        H287   1.081       .  S
C285        C286   1.388       .  A
C285        C445   1.490       .  S
C286        H288   1.082   1_556  S
N289        N290   1.321       .  A
N289        C293   1.347       .  A
N289       Cu297   2.075       .  S
N290        C291   1.341       .  A
N290       Cu296   2.058       .  S
C291        C292   1.380       .  A
C291        H294   1.081       .  S
C292        C293   1.386       .  A
C292        C403   1.476       .  S
C293        H295   1.082       .  S
Cu296       N299   2.058       .  S
Cu297       N307   2.075       .  S
Cu298       N300   2.072       .  S
Cu298       N306   2.073       .  S
N299        N300   1.319       .  A
N299        C303   1.341       .  A
N300        C301   1.344       .  A
C301        C302   1.391       .  A
C301        H304   1.081       .  S
C302        C303   1.387       .  A
C302        C599   1.489       .  S
C303        H305   1.081       .  S
N306        N307   1.323       .  A
N306        C310   1.345       .  A
N307        C308   1.343       .  A
C308        C309   1.386       .  A
C308        H311   1.081       .  S
C309        C310   1.386       .  A
C309        C414   1.483       .  S
C310        H312   1.082       .  S
N313        N314   1.323       .  A
N313        C317   1.347       .  A
N313       Cu321   2.074       .  S
N314        C315   1.343       .  A
N314       Cu320   2.072       .  S
C315        C316   1.380       .  A
C315        H318   1.082       .  S
C316        C317   1.381       .  A
C316        C431   1.469       .  S
C317        H319   1.082       .  S
Cu320       N323   2.071       .  S
Cu321       N331   2.074       .  S
Cu322       N324   2.065       .  S
Cu322       N330   2.065       .  S
N323        N324   1.320       .  A
N323        C327   1.344       .  A
N324        C325   1.343       .  A
C325        C326   1.386       .  A
C325        H328   1.082       .  S
C326        C327   1.386       .  A
C326        C613   1.482       .  S
C327        H329   1.081       .  S
N330        N331   1.321       .  A
N330        C334   1.342       .  A
N331        C332   1.345       .  A
C332        C333   1.387       .  A
C332        H335   1.081       .  S
C333        C334   1.385       .  A
C333        C417   1.483       .  S
C334        H336   1.082       .  S
N337        N338   1.322       .  A
N337        C341   1.346       .  A
N337       Cu345   2.077       .  S
N338        C339   1.342       .  A
N338       Cu344   2.073       .  S
C339        C340   1.387       .  A
C339        H342   1.082       .  S
C340        C341   1.389       .  A
C340        C400   1.488       .  S
C341        H343   1.081       .  S
Cu344       N347   2.072       .  S
Cu345       N355   2.077       .  S
Cu346       N348   2.070       .  S
Cu346       N354   2.070       .  S
N347        N348   1.319       .  A
N347        C351   1.345       .  A
N348        C349   1.343       .  A
C349        C350   1.390       .  A
C349        H352   1.081       .  S
C350        C351   1.391       .  A
C350        C655   1.494       .  S
C351        H353   1.081       .  S
N354        N355   1.321       .  A
N354        C358   1.342       .  A
N355        C356   1.346       .  A
C356        C357   1.388       .  A
C356        H359   1.082       .  S
C357        C358   1.385       .  A
C357        C389   1.486       .  S
C358        H360   1.081       .  S
N361        N362   1.321       .  A
N361        C365   1.345       .  A
N361       Cu369   2.075       .  S
N362        C363   1.343       .  A
N362       Cu368   2.067       .  S
C363        C364   1.384       .  A
C363        H366   1.082       .  S
C364        C365   1.386       .  A
C364        C470   1.482       .  S
C365        H367   1.082       .  S
Cu368       N371   2.067       .  S
Cu369       N379   2.075       .  S
Cu370       N372   2.075       .  S
Cu370       N378   2.075       .  S
N371        N372   1.320       .  A
N371        C375   1.344       .  A
N372        C373   1.344       .  A
C373        C374   1.390       .  A
C373        H376   1.081   1_556  S
C374        C375   1.389       .  A
C374        C680   1.492       .  S
C375        H377   1.081       .  S
N378        N379   1.322       .  A
N378        C382   1.345       .  A
N379        C380   1.345       .  A
C380        C381   1.385       .  A
C380        H383   1.082       .  S
C381        C382   1.385       .  A
C381        C386   1.482       .  S
C382        H384   1.081   1_556  S
C385        C386   1.404   1_554  A
C385        C390   1.403       .  A
C385        H392   1.085       .  S
C386        C387   1.411       .  A
C387        C388   1.399       .  A
C387        N394   1.431       .  S
C388        C389   1.405   1_556  A
C388        H393   1.084       .  S
C389        C390   1.415       .  A
C390        N391   1.431       .  S
N391        O395   1.262       .  A
N391        O396   1.262       .  A
N394        O398   1.262       .  A
N394        O397   1.262       .  A
C399        C400   1.407       .  A
C399        C404   1.402       .  A
C399        H406   1.084       .  S
C400        C401   1.416       .  A
C401        C402   1.400       .  A
C401        N408   1.435       .  S
C402        C403   1.401       .  A
C402        H407   1.085       .  S
C403        C404   1.409       .  A
C404        N405   1.432       .  S
N405        O409   1.262       .  A
N405        O410   1.262       .  A
N408        O412   1.263       .  A
N408        O411   1.263       .  A
C413        C414   1.404       .  A
C413        C418   1.399       .  A
C413        H420   1.084       .  S
C414        C415   1.413       .  A
C415        C416   1.401       .  A
C415        N422   1.431       .  S
C416        C417   1.405       .  A
C416        H421   1.085       .  S
C417        C418   1.413       .  A
C418        N419   1.433       .  S
N419        O423   1.262       .  A
N419        O424   1.262       .  A
N422        O426   1.262       .  A
N422        O425   1.262       .  A
C427        C428   1.405       .  A
C427        C432   1.398       .  A
C427        H434   1.084       .  S
C428        C429   1.416       .  A
C429        C430   1.404       .  A
C429        N436   1.433       .  S
C430        C431   1.400       .  A
C430        H435   1.085       .  S
C431        C432   1.406       .  A
C432        N433   1.432       .  S
N433        O437   1.262       .  A
N433        O438   1.262       .  A
N436        O440   1.262       .  A
N436        O439   1.262       .  A
C441        C442   1.404       .  A
C441        C446   1.403       .  A
C441        H448   1.085       .  S
C442        C443   1.415   1_554  A
C443        C444   1.399       .  A
C443        N450   1.432       .  S
C444        C445   1.404       .  A
C444        H449   1.085       .  S
C445        C446   1.416   1_556  A
C446        N447   1.431       .  S
N447        O451   1.262       .  A
N447        O452   1.262       .  A
N450        O454   1.263       .  A
N450        O453   1.262       .  A
C455        C456   1.399       .  A
C455        C460   1.400       .  A
C455        H462   1.085       .  S
C456        C457   1.404       .  A
C457        C458   1.402       .  A
C457        N464   1.429       .  S
C458        C459   1.409       .  A
C458        H463   1.084       .  S
C459        C460   1.416       .  A
C460        N461   1.434       .  S
N461        O465   1.262       .  A
N461        O466   1.262       .  A
N464        O468   1.262       .  A
N464        O467   1.262       .  A
C469        C470   1.404       .  A
C469        C474   1.403       .  A
C469        H476   1.085       .  S
C470        C471   1.413       .  A
C471        C472   1.397       .  A
C471        N478   1.431       .  S
C472        C473   1.403       .  A
C472        H477   1.085       .  S
C473        C474   1.413       .  A
C474        N475   1.431       .  S
N475        O479   1.262       .  A
N475        O480   1.262       .  A
N478        O482   1.262       .  A
N478        O481   1.262       .  A
C483        C484   1.404       .  A
C483        C488   1.401       .  A
C483        H490   1.085       .  S
C484        C485   1.412       .  A
C485        C486   1.401       .  A
C485        N492   1.431       .  S
C486        C487   1.406       .  A
C486        H491   1.084       .  S
C487        C488   1.415       .  A
C488        N489   1.433       .  S
N489        O493   1.262       .  A
N489        O494   1.262       .  A
N492        O496   1.262       .  A
N492        O495   1.262       .  A
C497        C498   1.405       .  A
C497        C502   1.401       .  A
C497        H504   1.084       .  S
C498        C499   1.416   1_565  A
C499        C500   1.401       .  A
C499        N506   1.434       .  S
C500        C501   1.403       .  A
C500        H505   1.085       .  S
C501        C502   1.412   1_545  A
C502        N503   1.432       .  S
N503        O507   1.262       .  A
N503        O508   1.262       .  A
N506        O510   1.262       .  A
N506        O509   1.262       .  A
C511        C512   1.404       .  A
C511        C516   1.401   1_565  A
C511        H518   1.084       .  S
C512        C513   1.416       .  A
C513        C514   1.403       .  A
C513        N520   1.434       .  S
C514        C515   1.403       .  A
C514        H519   1.085       .  S
C515        C516   1.414   1_565  A
C516        N517   1.434       .  S
N517        O521   1.262       .  A
N517        O522   1.262       .  A
N520        O524   1.263       .  A
N520        O523   1.262       .  A
C525        C526   1.404       .  A
C525        C530   1.399       .  A
C525        H532   1.084       .  S
C526        C527   1.415       .  A
C527        C528   1.402       .  A
C527        N534   1.430       .  S
C528        C529   1.403       .  A
C528        H533   1.085       .  S
C529        C530   1.413       .  A
C530        N531   1.431       .  S
N531        O535   1.262       .  A
N531        O536   1.262       .  A
N534        O538   1.262       .  A
N534        O537   1.262       .  A
C539        C540   1.404   1_554  A
C539        C544   1.402       .  A
C539        H546   1.085       .  S
C540        C541   1.412       .  A
C541        C542   1.398   1_565  A
C541        N548   1.433       .  S
C542        C543   1.403   1_556  A
C542        H547   1.085       .  S
C543        C544   1.413   1_545  A
C544        N545   1.433   1_565  S
N545        O549   1.262   1_545  A
N545        O550   1.262       .  A
N548        O552   1.262   1_565  A
N548        O551   1.262       .  A
C553        C554   1.402       .  A
C553        C558   1.400       .  A
C553        H560   1.085       .  S
C554        C555   1.411       .  A
C555        C556   1.402       .  A
C555        N562   1.433       .  S
C556        C557   1.407       .  A
C556        H561   1.084       .  S
C557        C558   1.415       .  A
C558        N559   1.435       .  S
N559        O563   1.263       .  A
N559        O564   1.263       .  A
N562        O566   1.262       .  A
N562        O565   1.262       .  A
C567        C568   1.405       .  A
C567        C572   1.402       .  A
C567        H574   1.085       .  S
C568        C569   1.413   1_556  A
C569        C570   1.399       .  A
C569        N576   1.433       .  S
C570        C571   1.403       .  A
C570        H575   1.084       .  S
C571        C572   1.411   1_554  A
C572        N573   1.432       .  S
N573        O577   1.262       .  A
N573        O578   1.262       .  A
N576        O580   1.262       .  A
N576        O579   1.262   1_554  A
C581        C582   1.402   1_556  A
C581        C586   1.398       .  A
C581        H588   1.085   1_556  S
C582        C583   1.408       .  A
C583        C584   1.400   1_554  A
C583        N590   1.429       .  S
C584        C585   1.403       .  A
C584        H589   1.085       .  S
C585        C586   1.411       .  A
C586        N587   1.432       .  S
N587        O591   1.262       .  A
N587        O592   1.262   1_556  A
N590        O594   1.262       .  A
N590        O593   1.262   1_554  A
C595        C596   1.403       .  A
C595        C600   1.400       .  A
C595        H602   1.085       .  S
C596        C597   1.411       .  A
C597        C598   1.400       .  A
C597        N604   1.432       .  S
C598        C599   1.407       .  A
C598        H603   1.084       .  S
C599        C600   1.415       .  A
C600        N601   1.430       .  S
N601        O605   1.262       .  A
N601        O606   1.262       .  A
N604        O608   1.262       .  A
N604        O607   1.262       .  A
C609        C610   1.405       .  A
C609        C614   1.400       .  A
C609        H616   1.084       .  S
C610        C611   1.415       .  A
C611        C612   1.402       .  A
C611        N618   1.433       .  S
C612        C613   1.403       .  A
C612        H617   1.085       .  S
C613        C614   1.413       .  A
C614        N615   1.434       .  S
N615        O619   1.262       .  A
N615        O620   1.262       .  A
N618        O622   1.262       .  A
N618        O621   1.262       .  A
C623        C624   1.407       .  A
C623        C628   1.401       .  A
C623        H630   1.084       .  S
C624        C625   1.417       .  A
C625        C626   1.399       .  A
C625        N632   1.434       .  S
C626        C627   1.401       .  A
C626        H631   1.086       .  S
C627        C628   1.408       .  A
C628        N629   1.430       .  S
N629        O633   1.262       .  A
N629        O634   1.262       .  A
N632        O636   1.263       .  A
N632        O635   1.262       .  A
C637        C638   1.405       .  A
C637        C642   1.399       .  A
C637        H644   1.084       .  S
C638        C639   1.414       .  A
C639        C640   1.402       .  A
C639        N646   1.431       .  S
C640        C641   1.405       .  A
C640        H645   1.085       .  S
C641        C642   1.414       .  A
C642        N643   1.431       .  S
N643        O647   1.262       .  A
N643        O648   1.262       .  A
N646        O650   1.262       .  A
N646        O649   1.262       .  A
C651        C652   1.402       .  A
C651        C656   1.402   1_655  A
C651        H658   1.085       .  S
C652        C653   1.412   1_656  A
C653        C654   1.402       .  A
C653        N660   1.432       .  S
C654        C655   1.407       .  A
C654        H659   1.084       .  S
C655        C656   1.418   1_554  A
C656        N657   1.433   1_455  S
N657        O661   1.262   1_556  A
N657        O662   1.263       .  A
N660        O664   1.262       .  A
N660        O663   1.262       .  A
C665        C666   1.402       .  A
C665        C670   1.400       .  A
C665        H672   1.085       .  S
C666        C667   1.412       .  A
C667        C668   1.400       .  A
C667        N674   1.432       .  S
C668        C669   1.405       .  A
C668        H673   1.084       .  S
C669        C670   1.414       .  A
C670        N671   1.430       .  S
N671        O675   1.262       .  A
N671        O676   1.262       .  A
N674        O678   1.262       .  A
N674        O677   1.262       .  A
C679        C680   1.406   1_554  A
C679        C684   1.401   1_545  A
C679        H686   1.084       .  S
C680        C681   1.417   1_545  A
C681        C682   1.401       .  A
C681        N688   1.430       .  S
C682        C683   1.403   1_556  A
C682        H687   1.085       .  S
C683        C684   1.413       .  A
C684        N685   1.432       .  S
N685        O689   1.262   1_565  A
N685        O690   1.262   1_455  A
N688        O692   1.262       .  A
N688        O691   1.262       .  A
C693        C694   1.400       .  A
C693        C698   1.402       .  A
C693        H700   1.085       .  S
C694        C695   1.407       .  A
C695        C696   1.398       .  A
C695        N702   1.433   1_655  S
C696        C697   1.407       .  A
C696        H701   1.084       .  S
C697        C698   1.419       .  A
C698        N699   1.432       .  S
N699        O703   1.262       .  A
N699        O704   1.262       .  A
N702        O706   1.262       .  A
N702        O705   1.262       .  A
C707        C708   1.406   1_556  A
C707        C712   1.399       .  A
C707        H714   1.084       .  S
C708        C709   1.418       .  A
C709        C710   1.403       .  A
C709        N716   1.434       .  S
C710        C711   1.401   1_554  A
C710        H715   1.086       .  S
C711        C712   1.410       .  A
C712        N713   1.431       .  S
N713        O717   1.262       .  A
N713        O718   1.262       .  A
N716        O720   1.263       .  A
N716        O719   1.262       .  A
