geometry optimzed in LAMMPS
_audit_creation_date              2020-12-01 
_audit_creation_method            'lammps2cif' 
_symmetry_space_group_name_H-M    'P1' 
_symmetry_Int_Tables_number       1 
_symmetry_cell_setting            triclinic 
loop_ 
_symmetry_equiv_pos_as_xyz 
  x,y,z 
_cell_length_a                    29.4909178 
_cell_length_b                    29.865165502744155 
_cell_length_c                    29.622565909673888 
_cell_angle_alpha                 90.80861695258567 
_cell_angle_beta                  90.82479924789207 
_cell_angle_gamma                 87.7689789237109 
loop_ 
_atom_site_label 
_atom_site_type_symbol 
_atom_site_fract_x 
_atom_site_fract_y 
_atom_site_fract_z 
_atom_site_charge 
C1          C  0.84038684  0.82458262  0.07124066     0.79200
N2          N  0.86183842  0.78453274  0.07804739    -0.79100
C3          C  0.87544780  0.75747720  0.04354354     0.81700
N4          N  0.85849009  0.76672624  0.00205371    -0.79000
C5          C  0.83883801  0.80698012  0.99203021     0.81800
N6          N  0.82960513  0.83742296  0.02712828    -0.80700
C7          C  0.79763692  0.29127675  0.05486887     0.79200
N8          N  0.79209771  0.24745415  0.05930059    -0.79100
C9          C  0.79895769  0.21872299  0.02510566     0.81700
N10         N  0.80522157  0.23395205  0.98307348    -0.79000
C11         C  0.80433450  0.27820310  0.97440650     0.81800
N12         N  0.80268869  0.30827558  0.01135600    -0.80700
C13         C  0.30005476  0.84401223  0.05529410     0.79200
N14         N  0.32305559  0.85767073  0.01669233    -0.79100
C15         C  0.30855930  0.84274885  0.97378227     0.81700
N16         N  0.27298610  0.81616963  0.97147514    -0.79000
C17         C  0.24734900  0.80849905  0.00727979     0.81800
N18         N  0.26312801  0.81903281  0.04900970    -0.80700
C19         C  0.80309524  0.10684774  0.80257478     0.79200
N20         N  0.81725173  0.06508891  0.78483680    -0.79100
C21         C  0.80278058  0.02588764  0.80445078     0.81700
N22         N  0.77420824  0.02977818  0.83978061    -0.79000
C23         C  0.75918445  0.07017166  0.85639287     0.81800
N24         N  0.77386839  0.10790792  0.83727448    -0.80700
C25         C  0.01592846  0.29227829  0.77960002     0.79200
N26         N  0.05840697  0.28939583  0.75835611    -0.79100
C27         C  0.09818811  0.28841248  0.78539278     0.81700
N28         N  0.09314441  0.28964771  0.83094260    -0.79000
C29         C  0.05211912  0.29319819  0.85100875     0.81800
N30         N  0.01508403  0.29475477  0.82480921    -0.80700
C31         C  0.01586421  0.85094786  0.78216370     0.79200
N32         N  0.00749576  0.87315467  0.74331400    -0.79100
C33         C  0.04092851  0.88793488  0.71726733     0.81700
N34         N  0.08429560  0.87544572  0.72825666    -0.79000
C35         C  0.09604095  0.85480862  0.76740856     0.81800
N36         N  0.06112838  0.84156628  0.79522591    -0.80700
C37         C  0.28262594  0.11437340  0.75649269     0.79200
N38         N  0.23903231  0.11723757  0.74235759    -0.79100
C39         C  0.21245501  0.08185784  0.74352301     0.81700
N40         N  0.23136204  0.04086022  0.75291076    -0.79000
C41         C  0.27548224  0.03536581  0.76547662     0.81800
N42         N  0.30173040  0.07291738  0.76841745    -0.80700
C43         C  0.03085242  0.82122658  0.22758475     0.79200
N44         N  0.07018651  0.83422412  0.25108223    -0.79100
C45         C  0.11289603  0.82270775  0.23313818     0.81700
N46         N  0.11416406  0.79679028  0.19585005    -0.79000
C47         C  0.07675342  0.78842376  0.17088681     0.81800
N48         N  0.03557732  0.80051059  0.18693079    -0.80700
C49         C  0.85084546  0.12291811  0.25283683     0.79200
N50         N  0.89672135  0.11638341  0.25631979    -0.79100
C51         C  0.91658943  0.07515618  0.26322420     0.81700
N52         N  0.88979820  0.04021107  0.26708796    -0.79000
C53         C  0.84447855  0.04317971  0.26121919     0.81800
N54         N  0.82383414  0.08540079  0.25426423    -0.80700
C55         C  0.02258714  0.26582359  0.27223701     0.79200
N56         N  0.02741520  0.22239498  0.25842055    -0.79100
C57         C  0.06871435  0.20156189  0.25461704     0.81700
N58         N  0.10639693  0.22468264  0.26239401    -0.79000
C59         C  0.10493183  0.26826708  0.27489830     0.81800
N60         N  0.06212088  0.28980563  0.28029703    -0.80700
Zr61       Zr  0.36100923  0.38972532  0.32243015     2.17500
O62         O  0.41324557  0.42653244  0.37133224    -0.52300
O63         O  0.34413139  0.47447618  0.30573635    -0.75500
O64         O  0.44557726  0.38119273  0.29814962    -0.82300
O65         O  0.28332358  0.32985389  0.41178137    -0.84100
O66         O  0.45295341  0.35659140  0.22517535    -0.79700
O67         O  0.33776924  0.38152211  0.40593456    -0.91300
O68         O  0.27177283  0.48333687  0.28109632    -0.77300
O69         O  0.34388487  0.40346582  0.24472547    -0.86800
O70         O  0.27957679  0.39740574  0.31848908    -0.86500
O71         O  0.38597967  0.32208219  0.28104832    -0.73200
O72         O  0.32723362  0.32031431  0.34441321    -0.85400
Zr73       Zr  0.26035657  0.27837994  0.21765981     2.26400
Zr74       Zr  0.37290597  0.33840884  0.20239429     2.06300
Zr75       Zr  0.24580262  0.32755119  0.33755449     2.10000
Zr76       Zr  0.26260449  0.41235299  0.24150824     1.78800
O77         O  0.22045956  0.27025257  0.38818635    -0.94200
O78         O  0.28692681  0.46335229  0.18414672    -0.42000
O79         O  0.23059672  0.34242937  0.25977844    -0.78600
O80         O  0.29092533  0.34979476  0.19703139    -0.97300
O81         O  0.34047951  0.26917178  0.22556576    -0.90600
O82         O  0.27243272  0.26250487  0.29535415    -0.93400
C83         C  0.30916925  0.50034506  0.29303671     1.00300
C84         C  0.31076285  0.35743126  0.43001835     1.13200
C85         C  0.47106800  0.36898192  0.26333656     1.04000
O86         O  0.39735755  0.39387721  0.14958807    -0.95600
O87         O  0.34823038  0.32227386  0.12285664    -0.91300
O88         O  0.28327739  0.28752027  0.13801886    -0.84500
C89         C  0.31204109  0.30270395  0.10959978     1.10700
O90         O  0.40860211  0.25433916  0.36435627    -0.97600
Zr91       Zr  0.35254181  0.25405959  0.30400821     1.88900
O92         O  0.28864809  0.19746858  0.21931679    -0.74200
O93         O  0.41962151  0.27485622  0.17537319    -0.53500
O94         O  0.42312201  0.21325690  0.28494945    -0.98200
O95         O  0.32027778  0.21474414  0.36684039    -0.55400
O96         O  0.34086400  0.17919972  0.27340770    -0.74700
C97         C  0.31594800  0.16850205  0.23962400     0.97600
O98         O  0.20556970  0.24318072  0.16740221    -0.63600
O99         O  0.19553721  0.38387295  0.37340967    -0.58400
O100        O  0.17884021  0.27702168  0.24268109    -0.95000
O101        O  0.16735007  0.30774201  0.31255852    -0.93500
O102        O  0.18803706  0.43954813  0.26664536    -0.93800
O103        O  0.20538845  0.41945501  0.18154923    -0.92600
C104        C  0.15234184  0.28814298  0.27636148     1.16500
H105        H  0.26902076  0.42153247  0.33814281     0.32400
H106        H  0.28169513  0.35939862  0.16725372     0.43200
H107        H  0.25711518  0.23593802  0.30383631     0.36800
H108        H  0.41714116  0.31292598  0.28621887     0.33300
H109        H  0.28480216  0.44633381  0.15531989     0.25000
H110        H  0.44523278  0.28845252  0.16006909     0.31000
H111        H  0.44590795  0.23628017  0.28085807     0.36900
H112        H  0.19205001  0.44677569  0.29914687     0.31300
H113        H  0.18020570  0.36736150  0.39718938     0.30200
H114        H  0.18774433  0.27724885  0.39271555     0.31900
H115        H  0.31060808  0.23870198  0.38845178     0.30900
H116        H  0.18920239  0.39104499  0.18222771     0.34900
H117        H  0.19690063  0.26617256  0.14478161     0.27600
H118        H  0.39331599  0.44333145  0.39252600     0.31800
H119        H  0.43146953  0.27461218  0.35307837     0.34700
H120        H  0.21574766  0.40394415  0.39040333     0.27300
H121        H  0.22332735  0.21994356  0.15033849     0.40200
H122        H  0.42765297  0.38258320  0.13964235     0.30200
H123        H  0.26245716  0.48693371  0.18215342     0.37800
H124        H  0.34622857  0.19891043  0.38203834     0.29700
H125        H  0.43339240  0.26150615  0.20296774     0.29800
H126        H  0.42502500  0.44945787  0.35126929     0.30000
C127        C  0.32192996  0.12240301  0.21784677     0.79200
N128        N  0.31541041  0.12239887  0.17261250    -0.79100
C129        C  0.31437309  0.08401558  0.14840860     0.81700
N130        N  0.32169843  0.04450292  0.16916879    -0.79000
C131        C  0.32882972  0.04163791  0.21399293     0.81800
N132        N  0.32843878  0.08130925  0.23957952    -0.80700
Zr133      Zr  0.37772645  0.78132888  0.32744803     2.17500
O134        O  0.43301983  0.72745896  0.35906606    -0.52300
O135        O  0.35879384  0.79136839  0.41048892    -0.75500
O136        O  0.46002514  0.80310412  0.32091693    -0.82300
O137        O  0.27935597  0.69849496  0.28607720    -0.84100
O138        O  0.46799394  0.87465581  0.29680145    -0.79700
O139        O  0.35372592  0.69991052  0.30761769    -0.91300
O140        O  0.33966108  0.86412927  0.42015403    -0.77300
O141        O  0.36873331  0.86081178  0.34128213    -0.86800
O142        O  0.29912126  0.79796467  0.34365243    -0.86500
O143        O  0.39837375  0.82172553  0.26002980    -0.73200
O144        O  0.33541316  0.76111219  0.26064932    -0.85400
Zr145      Zr  0.26855698  0.88932622  0.21857359     2.26400
Zr146      Zr  0.38918870  0.90079267  0.27538286     2.06300
Zr147      Zr  0.25698081  0.77700797  0.27756988     2.10000
Zr148      Zr  0.29046195  0.87749090  0.35510474     1.78800
O149        O  0.21494224  0.73509056  0.22075814    -0.94200
O150        O  0.31363773  0.94835995  0.38861124    -0.42000
O151        O  0.24817465  0.85604575  0.28874668    -0.78600
O152        O  0.30890957  0.91337038  0.28683479    -0.97300
O153        O  0.34852622  0.87793749  0.20764152    -0.90600
O154        O  0.27842998  0.81074956  0.20758253    -0.93400
C155        C  0.34531753  0.82503367  0.43612397     1.00300
C156        C  0.31751291  0.67809401  0.29457462     1.13200
C157        C  0.48510880  0.83611481  0.30916558     1.04000
O158        O  0.40847628  0.94935405  0.33905889    -0.95600
O159        O  0.36450409  0.97802390  0.25307881    -0.91300
O160        O  0.29647906  0.96866271  0.21663611    -0.84500
C161        C  0.32941403  0.99373121  0.23092547     1.10700
O162        O  0.41448633  0.73844151  0.19800370    -0.97600
Zr163      Zr  0.35790390  0.79937139  0.19410303     1.88900
O164        O  0.28087090  0.87117863  0.13321280    -0.74200
O165        O  0.44375383  0.92539768  0.22085042    -0.53500
O166        O  0.42865385  0.80855717  0.15446690    -0.98200
O167        O  0.32195892  0.74139150  0.14889281    -0.55400
O168        O  0.34752218  0.83331297  0.12051104    -0.74700
C169        C  0.31146607  0.85313333  0.10551862     0.97600
O170        O  0.21218586  0.94640197  0.19926205    -0.63600
O171        O  0.21667584  0.74648691  0.34022283    -0.58400
O172        O  0.18557902  0.86212741  0.22590908    -0.95000
O173        O  0.17918802  0.80729849  0.27729369    -0.93500
O174        O  0.23253393  0.85017019  0.40436267    -0.93800
O175        O  0.22574242  0.92972136  0.36598656    -0.92600
C176        C  0.16083830  0.83475884  0.24922166     1.16500
H177        H  0.28882346  0.78160876  0.36919614     0.32400
H178        H  0.30133307  0.94436796  0.29363888     0.43200
H179        H  0.25997834  0.80073964  0.18247844     0.36800
H180        H  0.42885813  0.81504796  0.25020422     0.33300
H181        H  0.29942672  0.97244832  0.36995613     0.25000
H182        H  0.46499879  0.94382138  0.23859156     0.31000
H183        H  0.43427455  0.84094830  0.15719504     0.36900
H184        H  0.20522725  0.84740750  0.38484520     0.31300
H185        H  0.20124930  0.77271781  0.35491899     0.30200
H186        H  0.19084727  0.72072330  0.23769222     0.31900
H187        H  0.29998974  0.72812758  0.16928786     0.30900
H188        H  0.21131369  0.93233321  0.33569481     0.34900
H189        H  0.19179073  0.93119160  0.17776763     0.27600
H190        H  0.45025971  0.74441824  0.38210311     0.31800
H191        H  0.42893309  0.74121639  0.22819081     0.34700
H192        H  0.19184406  0.72969830  0.32596570     0.27300
H193        H  0.19416488  0.95126806  0.22698230     0.40200
H194        H  0.42050677  0.92894283  0.36281420     0.30200
H195        H  0.29786684  0.95086455  0.41788469     0.37800
H196        H  0.34566134  0.71746177  0.14467131     0.29700
H197        H  0.46190821  0.89811150  0.21219154     0.29800
H198        H  0.45498911  0.72065796  0.33477602     0.30000
Zr199      Zr  0.86606049  0.28226286  0.20944106     2.17500
O200        O  0.92439519  0.25308340  0.15882504    -0.52300
O201        O  0.85856941  0.19938934  0.22587051    -0.75500
O202        O  0.94790555  0.27556602  0.23713778    -0.82300
O203        O  0.77758619  0.34211055  0.11521550    -0.84100
O204        O  0.95607417  0.30228956  0.30931559    -0.79700
O205        O  0.83512927  0.29047199  0.12823231    -0.91300
O206        O  0.79847283  0.18526565  0.26944622    -0.77300
O207        O  0.85051318  0.26738722  0.28651669    -0.86800
O208        O  0.78512793  0.27803822  0.21113379    -0.86500
O209        O  0.89201338  0.34571982  0.25344496    -0.73200
O210        O  0.83164609  0.35359081  0.18649218    -0.85400
Zr211      Zr  0.76509937  0.39664793  0.31290480     2.26400
Zr212      Zr  0.87753389  0.32980820  0.33178966     2.06300
Zr213      Zr  0.74998396  0.35118416  0.19215451     2.10000
Zr214      Zr  0.76996465  0.26143915  0.28761970     1.78800
O215        O  0.72397407  0.41812138  0.15181004    -0.94200
O216        O  0.77923182  0.22049924  0.35819263    -0.42000
O217        O  0.73819560  0.33441364  0.26934126    -0.78600
O218        O  0.79615314  0.32291581  0.33345893    -0.97300
O219        O  0.84531558  0.40105633  0.30746762    -0.90600
O220        O  0.77794287  0.41354966  0.23574130    -0.93400
C221        C  0.83374230  0.17175730  0.24769591     1.00300
C222        C  0.80635233  0.31219811  0.10100773     1.13200
C223        C  0.97297368  0.28406235  0.27284103     1.04000
O224        O  0.90627041  0.27133711  0.38228147    -0.95600
O225        O  0.84585539  0.34476449  0.41030347    -0.91300
O226        O  0.77957893  0.38429332  0.39631615    -0.84500
C227        C  0.80841947  0.36462766  0.42431050     1.10700
O228        O  0.91742642  0.40582013  0.17195927    -0.97600
Zr229      Zr  0.85912308  0.41589870  0.22921038     1.88900
O230        O  0.79771534  0.47581928  0.30898579    -0.74200
O231        O  0.92589790  0.38759154  0.36236075    -0.53500
O232        O  0.93155646  0.44421103  0.25514643    -0.98200
O233        O  0.83669346  0.46011152  0.16345958    -0.55400
O234        O  0.85074771  0.49240220  0.25788079    -0.74700
C235        C  0.82548433  0.50413366  0.29082802     0.97600
O236        O  0.71110597  0.44221977  0.35421034    -0.63600
O237        O  0.69912793  0.30351447  0.14910018    -0.58400
O238        O  0.68132830  0.38275714  0.29088371    -0.95000
O239        O  0.66948065  0.36264301  0.21767327    -0.93500
O240        O  0.70687157  0.23482239  0.24184328    -0.93800
O241        O  0.70004176  0.25172390  0.32842570    -0.92600
C242        C  0.65379569  0.37171048  0.25747086     1.16500
H243        H  0.77518717  0.25469564  0.19081528     0.32400
H244        H  0.78601523  0.31373124  0.36242901     0.43200
H245        H  0.76286527  0.44165821  0.22767855     0.36800
H246        H  0.92368587  0.35069554  0.24905096     0.33300
H247        H  0.81232807  0.21432220  0.36130013     0.25000
H248        H  0.91321451  0.39583926  0.39222815     0.31000
H249        H  0.93726732  0.46966666  0.23519542     0.36900
H250        H  0.71604044  0.20377279  0.23285052     0.31300
H251        H  0.71894337  0.28161539  0.13253564     0.30200
H252        H  0.70537201  0.40675057  0.12633959     0.31900
H253        H  0.86267260  0.47931618  0.15815013     0.30900
H254        H  0.69505129  0.21910612  0.32770928     0.34900
H255        H  0.68803347  0.45188174  0.33145107     0.27600
H256        H  0.92774941  0.27690121  0.13637936     0.31800
H257        H  0.91538174  0.37436894  0.16132199     0.34700
H258        H  0.68426155  0.28540614  0.17191073     0.27300
H259        H  0.69602528  0.42024515  0.37287702     0.40200
H260        H  0.87951439  0.25360140  0.38871421     0.30200
H261        H  0.77183281  0.24208017  0.38291832     0.37800
H262        H  0.81230197  0.48119103  0.17414207     0.29700
H263        H  0.95519586  0.37173531  0.36941080     0.29800
H264        H  0.90995759  0.22819976  0.14243100     0.30000
Zr265      Zr  0.77062359  0.79120833  0.33437106     2.17500
O266        O  0.72296025  0.74364017  0.37862481    -0.52300
O267        O  0.78157890  0.81056603  0.41480067    -0.75500
O268        O  0.79620281  0.70846260  0.32863538    -0.82300
O269        O  0.67673719  0.88758694  0.29618098    -0.84100
O270        O  0.86334693  0.69470183  0.29315783    -0.79700
O271        O  0.68916912  0.81694510  0.32298229    -0.91300
O272        O  0.83303827  0.85989758  0.43803439    -0.77300
O273        O  0.84966370  0.79814360  0.34860181    -0.86800
O274        O  0.78013257  0.86962158  0.34839755    -0.86500
O275        O  0.80571725  0.76652646  0.26480118    -0.73200
O276        O  0.74338623  0.83254121  0.26946877    -0.85400
Zr277      Zr  0.87268117  0.88562549  0.22433529     2.26400
Zr278      Zr  0.88628815  0.77223715  0.28016064     2.06300
Zr279      Zr  0.75554976  0.91107203  0.28234881     2.10000
Zr280      Zr  0.85943418  0.87669129  0.36179373     1.78800
O281        O  0.70516721  0.94323236  0.22438437    -0.94200
O282        O  0.92688082  0.84919711  0.40295046    -0.42000
O283        O  0.83645333  0.91329022  0.29273675    -0.78600
O284        O  0.89774695  0.85059733  0.29420477    -0.97300
O285        O  0.85861423  0.80895583  0.21231541    -0.90600
O286        O  0.79226316  0.88505736  0.21375836    -0.93400
C287        C  0.80130549  0.83332869  0.44638604     1.00300
C288        C  0.66208168  0.84971498  0.30928509     1.13200
C289        C  0.82817490  0.68076152  0.31297969     1.04000
O290        O  0.93180844  0.75077260  0.34625666    -0.95600
O291        O  0.96399849  0.79294797  0.26033319    -0.91300
O292        O  0.95646549  0.86144433  0.22793358    -0.84500
C293        C  0.98142393  0.82714428  0.24196813     1.10700
O294        O  0.72406764  0.74851069  0.19166090    -0.97600
Zr295      Zr  0.77784642  0.80799665  0.20063193     1.88900
O296        O  0.86195424  0.86054014  0.14212950    -0.74200
O297        O  0.92412578  0.71850059  0.22930288    -0.53500
O298        O  0.80517951  0.74644904  0.15200166    -0.98200
O299        O  0.70356380  0.83431579  0.17237250    -0.55400
O300        O  0.78953447  0.84375455  0.12924590    -0.74700
C301        C  0.82922307  0.84896911  0.11476911     0.97600
O302        O  0.91162760  0.93427105  0.17582480    -0.63600
O303        O  0.72993312  0.96212644  0.34248212    -0.58400
O304        O  0.85426049  0.96683881  0.23907030    -0.95000
O305        O  0.78615738  0.98671965  0.27016402    -0.93500
O306        O  0.82779187  0.94718177  0.39240141    -0.93800
O307        O  0.91806709  0.93153775  0.37059719    -0.92600
C308        C  0.82516500  0.99692228  0.25485071     1.16500
H309        H  0.76257162  0.88051449  0.37382403     0.32400
H310        H  0.92873716  0.85668473  0.30189292     0.43200
H311        H  0.78272957  0.90377669  0.18877915     0.36800
H312        H  0.79813888  0.73659537  0.25579260     0.33300
H313        H  0.91696552  0.82274637  0.41939222     0.25000
H314        H  0.94065463  0.69679566  0.24912839     0.31000
H315        H  0.83736027  0.74083989  0.16086314     0.36900
H316        H  0.82953438  0.96881221  0.36751238     0.31300
H317        H  0.71312275  0.98678106  0.32671838     0.30200
H318        H  0.72310592  0.96583682  0.20924925     0.31900
H319        H  0.70613393  0.86698360  0.16851831     0.30900
H320        H  0.91815388  0.94003783  0.40304400     0.34900
H321        H  0.93197268  0.91304471  0.15916584     0.27600
H322        H  0.70445976  0.76453892  0.39775434     0.31800
H323        H  0.71628978  0.74725797  0.15904650     0.34700
H324        H  0.70621698  0.94612749  0.35832817     0.27300
H325        H  0.88827659  0.94360884  0.15316686     0.40200
H326        H  0.92411531  0.71953097  0.35252082     0.30200
H327        H  0.94753567  0.83658376  0.37956497     0.37800
H328        H  0.68291137  0.83175726  0.19817960     0.29700
H329        H  0.89960509  0.70140076  0.21485782     0.29800
H330        H  0.74390736  0.72800807  0.40015843     0.30000
C331        C  0.29658429  0.29768369  0.06051387     0.79200
N332        N  0.31881416  0.30589114  0.01993530    -0.79100
C333        C  0.29639605  0.29628639  0.97892994     0.81700
N334        N  0.25484524  0.27895131  0.98065995    -0.79000
C335        C  0.23432732  0.27079883  0.01949959     0.81800
N336        N  0.25521403  0.27998791  0.05836254    -0.80700
Zr337      Zr  0.26244738  0.26704298  0.82013096     2.17500
O338        O  0.22983979  0.22183986  0.87811342    -0.52300
O339        O  0.27458641  0.18737350  0.79112908    -0.75500
O340        O  0.17781505  0.27202291  0.80264703    -0.82300
O341        O  0.34972888  0.31618729  0.91778096    -0.84100
O342        O  0.16261134  0.30027141  0.73282027    -0.79700
O343        O  0.28402060  0.28241853  0.90054053    -0.91300
O344        O  0.33710570  0.17015040  0.74994628    -0.77300
O345        O  0.27550517  0.25292046  0.74250073    -0.86800
O346        O  0.34328437  0.25816803  0.81416077    -0.86500
O347        O  0.23249761  0.33465049  0.78410647    -0.73200
O348        O  0.29709131  0.33498605  0.84601248    -0.85400
Zr349      Zr  0.35479995  0.37773619  0.71680641     2.26400
Zr350      Zr  0.24143429  0.31722141  0.70529396     2.06300
Zr351      Zr  0.37742342  0.32706329  0.83892167     2.10000
Zr352      Zr  0.35667067  0.24569014  0.73550987     1.78800
O353        O  0.40129325  0.39207433  0.88250798    -0.94200
O354        O  0.34147641  0.20608190  0.66461949    -0.42000
O355        O  0.38693323  0.31507839  0.75874175    -0.78600
O356        O  0.32280112  0.30738038  0.69428262    -0.97300
O357        O  0.27499009  0.38658794  0.72963532    -0.90600
O358        O  0.34794416  0.39160399  0.79690096    -0.93400
C359        C  0.30086211  0.15903410  0.76862950     1.00300
C360        C  0.31250236  0.29862722  0.92999595     1.13200
C361        C  0.14884220  0.28517406  0.77107365     1.04000
O362        O  0.22075427  0.25006828  0.66350528    -0.95600
O363        O  0.26379526  0.33875989  0.62844023    -0.91300
O364        O  0.33252172  0.37124918  0.63192594    -0.84500
C365        C  0.29742391  0.35678124  0.60884794     1.10700
O366        O  0.21630714  0.39217767  0.87139397    -0.97600
Zr367      Zr  0.26856804  0.40109562  0.80923424     1.88900
O368        O  0.33220074  0.45990477  0.72570856    -0.74200
O369        O  0.18550075  0.36552423  0.66647119    -0.53500
O370        O  0.19730907  0.44074118  0.78988445    -0.98200
O371        O  0.29218604  0.44213946  0.87678795    -0.55400
O372        O  0.28593138  0.47588827  0.78475988    -0.74700
C373        C  0.30873175  0.48808358  0.75097757     0.97600
O374        O  0.40731642  0.41694223  0.67072418    -0.63600
O375        O  0.43176719  0.27381617  0.87337749    -0.58400
O376        O  0.43644853  0.36906074  0.74442480    -0.95000
O377        O  0.45519166  0.33948880  0.81288913    -0.93500
O378        O  0.42276638  0.20881550  0.77164823    -0.93800
O379        O  0.42358735  0.24719098  0.68825810    -0.92600
C380        C  0.46653672  0.35704543  0.77549868     1.16500
H381        H  0.35436732  0.23312196  0.83199875     0.32400
H382        H  0.32978292  0.29908758  0.66359020     0.43200
H383        H  0.36358740  0.41827859  0.80558977     0.36800
H384        H  0.20173798  0.34347031  0.79134916     0.33300
H385        H  0.30805265  0.20815721  0.66087370     0.25000
H386        H  0.16386713  0.34481017  0.65232226     0.31000
H387        H  0.18899071  0.45835358  0.81731775     0.36900
H388        H  0.41090240  0.18696643  0.79289505     0.31300
H389        H  0.44970892  0.29210700  0.89472340     0.30200
H390        H  0.37546220  0.40004324  0.90241882     0.31900
H391        H  0.26713556  0.46446354  0.88250950     0.30900
H392        H  0.44431597  0.26769441  0.70406462     0.34900
H393        H  0.38778861  0.43662866  0.65141244     0.27600
H394        H  0.25405615  0.19939027  0.88631206     0.31800
H395        H  0.21205258  0.35953096  0.87342459     0.34700
H396        H  0.41354135  0.25507512  0.89294289     0.27300
H397        H  0.42212461  0.43794483  0.69191386     0.40200
H398        H  0.23218070  0.25427345  0.63265006     0.30200
H399        H  0.35284634  0.22499560  0.64039373     0.37800
H400        H  0.31770830  0.46020420  0.86723679     0.29700
H401        H  0.16820096  0.38099243  0.69090009     0.29800
H402        H  0.20660714  0.20456314  0.86188314     0.30000
Zr403      Zr  0.25779010  0.87927170  0.81933548     2.17500
O404        O  0.21499803  0.93456475  0.86222189    -0.52300
O405        O  0.26319815  0.96025027  0.79294975    -0.75500
O406        O  0.28611484  0.87281924  0.90125394    -0.82300
O407        O  0.16620742  0.83334078  0.73642312    -0.84100
O408        O  0.35809329  0.84209326  0.90821437    -0.79700
O409        O  0.17225967  0.86426750  0.80675991    -0.91300
O410        O  0.33072964  0.97511982  0.76370216    -0.77300
O411        O  0.33610148  0.89243691  0.80618910    -0.86800
O412        O  0.26226431  0.88965968  0.73990175    -0.86500
O413        O  0.30184125  0.81160949  0.84016441    -0.73200
O414        O  0.23521860  0.81048649  0.78329909    -0.85400
Zr415      Zr  0.36133605  0.76948646  0.70857394     2.26400
Zr416      Zr  0.38066319  0.82631135  0.82781029     2.06300
Zr417      Zr  0.24093626  0.82124218  0.70388902     2.10000
Zr418      Zr  0.34033661  0.90366151  0.72655306     1.78800
O419        O  0.20110549  0.75697705  0.67389534    -0.94200
O420        O  0.41506921  0.93576726  0.73387287    -0.42000
O421        O  0.31787355  0.83609249  0.69061128    -0.78600
O422        O  0.38361663  0.83808147  0.74724065    -0.97300
O423        O  0.35854857  0.75841213  0.78864549    -0.90600
O424        O  0.28408000  0.75479025  0.72290606    -0.93400
C425        C  0.29160440  0.98817377  0.77671143     1.00300
C426        C  0.14790736  0.84845726  0.77296164     1.13200
C427        C  0.32061574  0.85753858  0.92603580     1.04000
O428        O  0.42427220  0.89056667  0.85058393    -0.95600
O429        O  0.45772133  0.80998160  0.79570365    -0.91300
O430        O  0.44252208  0.77332952  0.72929808    -0.84500
C431        C  0.47025946  0.79133758  0.75787589     1.10700
O432        O  0.22236808  0.73296799  0.85785103    -0.97600
Zr433      Zr  0.28066860  0.74451957  0.80255648     1.88900
O434        O  0.34133452  0.68740458  0.71586814    -0.74200
O435        O  0.42025391  0.77359111  0.87818659    -0.53500
O436        O  0.30915470  0.71172762  0.87282548    -0.98200
O437        O  0.21931509  0.70264581  0.76799758    -0.55400
O438        O  0.31520175  0.67208576  0.78514084    -0.74700
C439        C  0.32636004  0.65960266  0.74554257     0.97600
O440        O  0.40978491  0.72946365  0.65415617    -0.63600
O441        O  0.19408609  0.86475437  0.65077896    -0.58400
O442        O  0.34265254  0.79283334  0.62688168    -0.95000
O443        O  0.27114868  0.82425696  0.62787346    -0.93500
O444        O  0.29524893  0.95307121  0.67696284    -0.93800
O445        O  0.37411840  0.90786384  0.65220734    -0.92600
C446        C  0.30730762  0.81182563  0.60651895     1.16500
H447        H  0.24184970  0.91353596  0.72952964     0.32400
H448        H  0.41265571  0.84732249  0.73744380     0.43200
H449        H  0.27324719  0.72967534  0.70559127     0.36800
H450        H  0.29635732  0.80209210  0.87039243     0.33300
H451        H  0.42541772  0.92857421  0.76496164     0.25000
H452        H  0.39593454  0.75963138  0.89513558     0.31000
H453        H  0.34150115  0.70375400  0.86722311     0.36900
H454        H  0.31388431  0.97956315  0.67291210     0.31300
H455        H  0.16586000  0.84810918  0.64696667     0.30200
H456        H  0.19803142  0.76250993  0.64110201     0.31900
H457        H  0.19085237  0.71915420  0.77644558     0.30900
H458        H  0.35079037  0.89731185  0.63061463     0.34900
H459        H  0.43173114  0.75141051  0.64411214     0.27600
H460        H  0.19478929  0.94935058  0.83962201     0.31800
H461        H  0.22210692  0.70013711  0.86208738     0.34700
H462        H  0.18488391  0.89222834  0.66779960     0.27300
H463        H  0.42810597  0.70738163  0.67202143     0.40200
H464        H  0.43454023  0.88414866  0.88187871     0.30200
H465        H  0.43563237  0.91751212  0.71419697     0.37800
H466        H  0.21891789  0.67403378  0.78444068     0.29700
H467        H  0.43225072  0.74931640  0.85806537     0.29800
H468        H  0.23702973  0.95757549  0.87051136     0.30000
Zr469      Zr  0.85821157  0.26387399  0.81500082     2.17500
O470        O  0.91777202  0.21599629  0.84839160    -0.52300
O471        O  0.83539698  0.18158577  0.81045997    -0.75500
O472        O  0.83796369  0.27215934  0.89891658    -0.82300
O473        O  0.95448579  0.30314862  0.72183317    -0.84100
O474        O  0.76853040  0.30770415  0.90669754    -0.79700
O475        O  0.93810991  0.27716263  0.79105676    -0.91300
O476        O  0.79298431  0.16500533  0.74865323    -0.77300
O477        O  0.78004596  0.25260817  0.80139710    -0.86800
O478        O  0.85253072  0.25164050  0.73515581    -0.86500
O479        O  0.82126223  0.33486057  0.83756537    -0.73200
O480        O  0.88086312  0.33073978  0.77618255    -0.85400
Zr481      Zr  0.75226153  0.37312149  0.71146295     2.26400
Zr482      Zr  0.74165961  0.32087000  0.82808293     2.06300
Zr483      Zr  0.87472666  0.31828158  0.69586034     2.10000
Zr484      Zr  0.77425654  0.23992067  0.72126537     1.78800
O485        O  0.92632461  0.37442501  0.67101469    -0.94200
O486        O  0.70146578  0.20553351  0.73089200    -0.42000
O487        O  0.79482932  0.30728208  0.68568694    -0.78600
O488        O  0.73259174  0.30510046  0.74832680    -0.97300
O489        O  0.76314597  0.38725173  0.78962411    -0.90600
O490        O  0.83153819  0.38619663  0.71828696    -0.93400
C491        C  0.81384773  0.15300637  0.78482747     1.00300
C492        C  0.96730202  0.28934757  0.76116183     1.13200
C493        C  0.80475685  0.28884417  0.92398590     1.04000
O494        O  0.69621663  0.26262885  0.85909055    -0.95600
O495        O  0.66128049  0.33770636  0.80639093    -0.91300
O496        O  0.67253749  0.36969868  0.73853066    -0.84500
C497        C  0.64599088  0.35716485  0.77045380     1.10700
O498        O  0.90947952  0.40835826  0.84429881    -0.97600
Zr499      Zr  0.84197206  0.40064213  0.79696570     1.88900
O500        O  0.75043095  0.45645800  0.72955606    -0.74200
O501        O  0.71164920  0.38454355  0.87212446    -0.53500
O502        O  0.82707948  0.43702629  0.86993530    -0.98200
O503        O  0.89879104  0.44145817  0.75699074    -0.55400
O504        O  0.80373399  0.47432390  0.78197701    -0.74700
C505        C  0.76974349  0.48549965  0.75631964     0.97600
O506        O  0.68846018  0.38970965  0.66078804    -0.63600
O507        O  0.89975975  0.25672941  0.64607140    -0.58400
O508        O  0.77978989  0.36372452  0.63157534    -0.95000
O509        O  0.85020056  0.33399338  0.61672698    -0.93500
O510        O  0.81289431  0.20314334  0.65778937    -0.93800
O511        O  0.72576475  0.23836815  0.65399018    -0.92600
C512        C  0.81120611  0.34993941  0.60320994     1.16500
H513        H  0.87096162  0.22554851  0.72658006     0.32400
H514        H  0.70200509  0.29680922  0.74138580     0.43200
H515        H  0.83901638  0.41154149  0.70031093     0.36800
H516        H  0.82927637  0.34386451  0.86785539     0.32900
H517        H  0.70518893  0.17535899  0.71683262     0.25000
H518        H  0.69191882  0.37120986  0.89467702     0.31000
H519        H  0.80326591  0.46070355  0.86465480     0.36900
H520        H  0.82231036  0.17279679  0.66819214     0.31300
H521        H  0.91951072  0.27072526  0.62396964     0.30200
H522        H  0.90698091  0.39675736  0.65455799     0.31900
H523        H  0.92617455  0.42118883  0.75666877     0.30900
H524        H  0.72422519  0.26960895  0.64313663     0.34900
H525        H  0.69273501  0.42092244  0.65174526     0.27600
H526        H  0.93288482  0.20034523  0.82268096     0.31800
H527        H  0.90270158  0.39280730  0.87252205     0.34700
H528        H  0.92092960  0.23789898  0.66462476     0.27300
H529        H  0.69369869  0.37104791  0.63335738     0.40200
H530        H  0.68369049  0.27587817  0.88731791     0.30200
H531        H  0.70002978  0.19987021  0.76367947     0.37800
H532        H  0.90677634  0.46650348  0.77748532     0.29700
H533        H  0.73797416  0.39503874  0.88989794     0.29800
H534        H  0.90136421  0.19196858  0.86300839     0.30000
Zr535      Zr  0.85754368  0.86997053  0.83892041     2.17500
O536        O  0.89444718  0.91872412  0.89269882    -0.52300
O537        O  0.94257178  0.86633214  0.81924712    -0.75500
O538        O  0.84799573  0.84871298  0.92115921    -0.82300
O539        O  0.81027992  0.96326425  0.75090691    -0.84100
O540        O  0.82074887  0.77809610  0.92001944    -0.79700
O541        O  0.83139992  0.95090345  0.82407332    -0.91300
O542        O  0.96089535  0.79686124  0.79404401    -0.77300
O543        O  0.87435229  0.79111474  0.82791956    -0.86800
O544        O  0.87550409  0.86170589  0.76029019    -0.86500
O545        O  0.78926800  0.82922196  0.85367898    -0.73200
O546        O  0.79079557  0.89306642  0.79612220    -0.85400
Zr547      Zr  0.75938217  0.76759321  0.72328457     2.26400
Zr548      Zr  0.80715309  0.75024555  0.84250270     2.06300
Zr549      Zr  0.80898542  0.88622184  0.71784100     2.10000
Zr550      Zr  0.89264466  0.78286603  0.74989161     1.78800
O551        O  0.74844247  0.93289440  0.68357407    -0.94200
O552        O  0.92718067  0.70964799  0.76796784    -0.42000
O553        O  0.82676110  0.80750281  0.70691983    -0.78600
O554        O  0.82646819  0.74163483  0.76445119    -0.97300
O555        O  0.74015829  0.77490571  0.80081020    -0.90600
O556        O  0.74195014  0.84560848  0.73378044    -0.93400
C557        C  0.97257130  0.83634318  0.80426814     1.00300
C558        C  0.81739994  0.97767184  0.79164082     1.13200
C559        C  0.83397072  0.81344149  0.94152344     1.04000
O560        O  0.87179606  0.70095075  0.86220621    -0.95600
O561        O  0.78459764  0.67382675  0.81574955    -0.91300
O562        O  0.75745765  0.68717601  0.74480918    -0.84500
C563        C  0.76679091  0.66023194  0.77798027     1.10700
O564        O  0.71071955  0.91496542  0.86450243    -0.97600
Zr565      Zr  0.72373710  0.85327396  0.81148890     1.88900
O566        O  0.67517651  0.78288688  0.72641179    -0.74200
O567        O  0.75680772  0.71844074  0.89705217    -0.53500
O568        O  0.68411828  0.83780760  0.88076655    -0.98200
O569        O  0.68297171  0.91346076  0.77124675    -0.55400
O570        O  0.65257193  0.82132540  0.78912963    -0.74700
C571        C  0.64385397  0.80070788  0.75222175     0.97600
O572        O  0.73562944  0.71848544  0.66141764    -0.63600
O573        O  0.86796493  0.92347813  0.67804178    -0.58400
O574        O  0.77105198  0.79322488  0.64526174    -0.95000
O575        O  0.80188201  0.86144925  0.63823118    -0.93500
O576        O  0.94490376  0.81339551  0.69653426    -0.93800
O577        O  0.90368843  0.73698840  0.68196943    -0.92600
C578        C  0.78497825  0.82580772  0.62115933     1.16500
H579        H  0.90036489  0.87963233  0.75147347     0.32400
H580        H  0.83474098  0.71087889  0.75698301     0.43200
H581        H  0.71695835  0.85523658  0.71437141     0.36800
H582        H  0.77780483  0.83604766  0.88331230     0.33300
H583        H  0.95615174  0.70808416  0.75142365     0.25000
H584        H  0.72874976  0.71220026  0.87971009     0.31000
H585        H  0.69508100  0.80722050  0.88905838     0.36900
H586        H  0.92663255  0.83643612  0.67991955     0.31300
H587        H  0.87772220  0.90220395  0.65384499     0.30200
H588        H  0.73382418  0.91382345  0.66042890     0.31900
H589        H  0.70326279  0.93910185  0.77297738     0.30900
H590        H  0.88191952  0.74987324  0.65945870     0.34900
H591        H  0.76036489  0.69534546  0.65805672     0.27600
H592        H  0.86922670  0.93631641  0.90672760     0.31800
H593        H  0.73403004  0.93659261  0.85714036     0.34700
H594        H  0.85164426  0.94824369  0.66197461     0.27300
H595        H  0.70953719  0.70228215  0.67281908     0.40200
H596        H  0.86376651  0.68834832  0.89162602     0.30200
H597        H  0.93650204  0.71201187  0.80012130     0.37800
H598        H  0.65706845  0.92239572  0.79071440     0.29700
H599        H  0.77060678  0.68852405  0.90401319     0.29800
H600        H  0.90907619  0.94041827  0.87327848     0.30000
C601        C  0.59607586  0.80300409  0.73433189     0.79200
N602        N  0.55745364  0.79758990  0.75950721    -0.79100
C603        C  0.51561534  0.79939482  0.73779204     0.81700
N604        N  0.51361210  0.80721398  0.69275079    -0.79000
C605        C  0.55091690  0.81375861  0.66843221     0.81800
N606        N  0.59168351  0.81143107  0.68968244    -0.80700
C607        C  0.29996428  0.53517195  0.73422537     0.79200
N608        N  0.31719043  0.57406152  0.75303114    -0.79100
C609        C  0.31133379  0.61419871  0.73000767     0.81700
N610        N  0.28869234  0.61425515  0.69019447    -0.79000
C611        C  0.27356411  0.57635182  0.67089574     0.81800
N612        N  0.27818331  0.53752635  0.69371431    -0.80700
C613        C  0.59648382  0.37124429  0.76358093     0.79200
N614        N  0.59203671  0.40525627  0.73419812    -0.79100
C615        C  0.55142340  0.42272758  0.72276386     0.81700
N616        N  0.51386291  0.40585669  0.73881738    -0.79000
C617        C  0.51467262  0.37116821  0.76679336     0.81800
N618        N  0.55708490  0.35271942  0.78051980    -0.80700
C619        C  0.74860583  0.53352160  0.75892013     0.79200
N620        N  0.77054510  0.57201330  0.77362260    -0.79100
C621        C  0.74745900  0.61380408  0.77226237     0.81700
N622        N  0.70475326  0.61585523  0.75531618    -0.79000
C623        C  0.68359083  0.57948315  0.74010012     0.81800
N624        N  0.70543902  0.53863630  0.74238865    -0.80700
C625        C  0.60520357  0.35728278  0.26982167     0.79200
N626        N  0.60637521  0.32681610  0.30314159    -0.79100
C627        C  0.56851306  0.31160237  0.32208207     0.81700
N628        N  0.52749086  0.32601300  0.30573444    -0.79000
C629        C  0.52223657  0.35645500  0.27270037     0.81800
N630        N  0.56203624  0.37287965  0.25373909    -0.80700
C631        C  0.83010312  0.55009869  0.31432003     0.79200
N632        N  0.83661244  0.59295991  0.29670042    -0.79100
C633        C  0.82449551  0.63100582  0.32349483     0.81700
N634        N  0.79977309  0.62449373  0.36060274    -0.79000
C635        C  0.79286528  0.58291833  0.37485002     0.81800
N636        N  0.81550288  0.54797593  0.35645585    -0.80700
C637        C  0.61530472  0.83523235  0.29497451     0.79200
N638        N  0.57258538  0.84953782  0.31049928    -0.79100
C639        C  0.53491426  0.82441017  0.29890014     0.81700
N640        N  0.54178831  0.78592849  0.27425399    -0.79000
C641        C  0.58329161  0.77329619  0.25827974     0.81800
N642        N  0.61856713  0.79853118  0.26835568    -0.80700
C643        C  0.31355298  0.54855720  0.27599594     0.79200
N644        N  0.31407498  0.58946748  0.29997191    -0.79100
C645        C  0.31981717  0.62942502  0.27648640     0.81700
N646        N  0.32471761  0.62675372  0.23108172    -0.79000
C647        C  0.32786112  0.58692464  0.20833265     0.81800
N648        N  0.31747630  0.54952654  0.23067712    -0.80700
C649        C  0.77976232  0.82916773  0.49192761     0.79200
N650        N  0.79767838  0.83589963  0.53512577    -0.79100
C651        C  0.77249864  0.82281714  0.57197962     0.81700
N652        N  0.73262217  0.80272273  0.56456522    -0.79000
C653        C  0.71548617  0.79806545  0.52275897     0.81800
N654        N  0.73879066  0.81145813  0.48766827    -0.80700
C655        C  0.79135697  0.35975006  0.47326600     0.79200
N656        N  0.81723008  0.35382204  0.51323312    -0.79100
C657        C  0.79473840  0.34732775  0.55399213     0.81700
N658        N  0.74942100  0.34514160  0.55285165    -0.79000
C659        C  0.72437162  0.35456547  0.51625396     0.81800
N660        N  0.74520819  0.36252860  0.47685903    -0.80700
C661        C  0.31856462  0.81588842  0.47742992     0.79200
N662        N  0.33094263  0.82279528  0.52249517    -0.79100
C663        C  0.30030812  0.81246936  0.55571041     0.81700
N664        N  0.26030846  0.79483881  0.54287280    -0.79000
C665        C  0.25325773  0.77992921  0.50023480     0.81800
N666        N  0.27922953  0.79609373  0.46766402    -0.80700
C667        C  0.29660375  0.37146685  0.47762497     0.79200
N668        N  0.25909924  0.39861814  0.47607997    -0.79100
C669        C  0.23647225  0.41250373  0.51316556     0.81700
N670        N  0.24959009  0.39471941  0.55340517    -0.79000
C671        C  0.28777366  0.36849112  0.55877901     0.81800
N672        N  0.31206615  0.35569050  0.51987088    -0.80700
O673        O  0.93553080  0.89519377  0.01229270    -0.87500
O674        O  0.14158057  0.95225379  0.91047367    -0.87700
O675        O  0.01860275  0.93116477  0.85450211    -0.89300
O676        O  0.06654267  0.85716947  0.97926127    -0.88100
O677        O  0.09012979  0.88775633  0.04674298    -0.87700
O678        O  0.96997996  0.99139734  0.84421204    -0.89000
O679        O  0.09346020  0.89819297  0.89232222    -0.87500
O680        O  0.97477114  0.86776848  0.95129343    -0.87100
Zr681      Zr  0.03186978  0.92118084  0.93778683     2.84300
O682        O  0.09333450  0.94992489  0.98273340    -1.09100
O683        O  0.96324468  0.96468140  0.93750620    -1.09800
C684        C  0.95363107  0.86250927  0.98834720     1.05600
C685        C  0.13192417  0.91024732  0.90629574     1.05600
C686        C  0.99798643  0.96123118  0.82921367     1.08500
C687        C  0.08541978  0.85430633  0.01891130     1.06300
H688        H  0.06195723  0.98840341  0.87829678     0.31900
O689        O  0.04880838  0.99082432  0.90746443    -1.30000
H690        H  0.01149059  0.90813760  0.02886222     0.31600
O691        O  0.01522920  0.93587453  0.01396730    -1.31700
O692        O  0.12670690  0.09528944  0.96735029    -0.87500
O693        O  0.89813577  0.03341788  0.04621721    -0.89000
O694        O  0.02450355  0.06130175  0.84872255    -0.87600
O695        O  0.15422277  0.98597027  0.06060921    -0.87600
O696        O  0.02563729  0.95799680  0.12387642    -0.87300
O697        O  0.89784085  0.04027193  0.91722053    -0.87100
O698        O  0.01195323  0.14113712  0.97888419    -0.87500
O699        O  0.04308043  0.08340414  0.10137673    -0.87000
O700        O  0.99679581  0.11720846  0.90766809    -0.88000
O701        O  0.08020582  0.01882873  0.12354076    -0.87200
O702        O  0.07644873  0.07482805  0.89995392    -0.87600
O703        O  0.87732176  0.99599739  0.97569308    -0.87300
O704        O  0.95436204  0.97902375  0.09864019    -0.87000
O705        O  0.17576338  0.01932295  0.99634042    -0.87400
O706        O  0.07618699  0.12849981  0.01491452    -0.87700
O707        O  0.95371034  0.07451048  0.07461882    -0.89000
Zr708      Zr  0.10610976  0.01850521  0.95157404     2.83100
Zr709      Zr  0.94678268  0.97674228  0.01506295     2.83500
Zr710      Zr  0.98111165  0.03582807  0.91058588     2.84100
Zr711      Zr  0.07297628  0.96780383  0.05764515     2.83400
Zr712      Zr  0.01807568  0.07588843  0.02489127     2.84200
O713        O  0.00517680  0.00963343  0.05574136    -1.09600
O714        O  0.03019116  0.01908114  0.97217640    -1.09100
C715        C  0.11309234  0.12808077  0.99291538     1.05600
C716        C  0.91227784  0.06984740  0.06326387     1.08200
C717        C  0.06523523  0.06993055  0.85857651     1.05800
C718        C  0.18295918  0.00776321  0.03745308     1.06100
C719        C  0.98524261  0.97507168  0.13030083     1.05700
C720        C  0.86835644  0.02429019  0.94424958     1.05300
C721        C  0.00982086  0.14713126  0.93640729     1.05700
C722        C  0.06772257  0.06050048  0.12937104     1.05200
H723        H  0.93299261  0.07259327  0.98276352     0.31900
O724        O  0.95749230  0.05028246  0.98297836    -1.30700
H725        H  0.10884782  0.05338555  0.04266217     0.31900
O726        O  0.08714996  0.03635099  0.02573690    -1.32000
O727        O  0.49365272  0.71696901  0.47838748    -0.87500
O728        O  0.44075049  0.48578771  0.55725881    -0.87700
O729        O  0.38014935  0.63352264  0.50444697    -0.89300
O730        O  0.51518981  0.61388384  0.59108700    -0.88100
O731        O  0.57567121  0.57942558  0.55800420    -0.87700
O732        O  0.33274387  0.59441572  0.46357063    -0.89000
O733        O  0.45344098  0.55287975  0.58961359    -0.87500
O734        O  0.47291558  0.68702421  0.54527340    -0.87100
Zr735      Zr  0.45464803  0.60754835  0.53055965     2.84300
O736        O  0.49949244  0.54338472  0.52227101    -1.09100
O737        O  0.45511648  0.59891466  0.45445434    -1.09800
C738        C  0.49007667  0.71853261  0.52194039     1.05600
C739        C  0.45359327  0.51005322  0.59042579     1.05600
C740        C  0.34329103  0.61275953  0.50138019     1.08500
C741        C  0.55747754  0.59964763  0.59141667     1.06300
H742        H  0.38894629  0.54493491  0.50764415     0.31900
O743        O  0.41328081  0.55401830  0.48897412    -1.30000
H744        H  0.53355513  0.64988439  0.50828100     0.31600
O745        O  0.51509696  0.63006096  0.49141413    -1.31700
O746        O  0.47947645  0.42522563  0.43727956    -0.87500
O747        O  0.52211278  0.65767585  0.34682803    -0.89000
O748        O  0.34769811  0.51134507  0.41946373    -0.87600
O749        O  0.58185561  0.49435002  0.51321082    -0.87600
O750        O  0.60266333  0.63413687  0.47074374    -0.87300
O751        O  0.36156644  0.64603230  0.39535421    -0.87100
O752        O  0.46520588  0.52800963  0.30363882    -0.87500
O753        O  0.58850338  0.52091911  0.36766686    -0.87000
O754        O  0.39907247  0.56304812  0.32665624    -0.88000
O755        O  0.61821588  0.54138647  0.43606143    -0.87200
O756        O  0.37824775  0.47315644  0.47816847    -0.87600
O757        O  0.40823693  0.68908015  0.43482258    -0.87300
O758        O  0.56148640  0.68410073  0.42761737    -0.87000
O759        O  0.52262191  0.44703939  0.51326925    -0.87400
O760        O  0.51621069  0.45188290  0.37576536    -0.87700
O761        O  0.53968120  0.58636339  0.31972231    -0.89000
Zr762      Zr  0.45935938  0.49045385  0.47946581     2.83100
Zr763      Zr  0.48724561  0.65511635  0.42215086     2.83500
Zr764      Zr  0.39492063  0.57413419  0.41227017     2.84100
Zr765      Zr  0.55953904  0.56665648  0.48134936     2.83400
Zr766      Zr  0.50682597  0.53558358  0.37125245     2.84200
O767        O  0.53966389  0.59483009  0.41116208    -1.09600
O768        O  0.44011541  0.50983658  0.40407549    -1.09100
C769        C  0.50525317  0.42016310  0.40311624     1.05600
C770        C  0.54101308  0.62923471  0.31840636     1.08200
C771        C  0.34364721  0.49064550  0.45660035     1.05800
C772        C  0.56432364  0.45628139  0.52137060     1.06100
C773        C  0.59670510  0.67235916  0.45090863     1.05700
C774        C  0.36747684  0.67859479  0.42240690     1.05300
C775        C  0.42729754  0.54819394  0.29546689     1.05700
C776        C  0.62166056  0.52713694  0.39564934     1.05200
H777        H  0.44907314  0.61621066  0.34662661     0.31900
O778        O  0.45615266  0.60132461  0.37450189    -1.30700
H779        H  0.54596443  0.48691809  0.44026987     0.31900
O780        O  0.52409961  0.51142873  0.44240150    -1.32000
C781        C  0.24794702  0.48331222  0.54238948    -0.02800
C782        C  0.21924472  0.46035826  0.51319680     0.06800
C783        C  0.21615200  0.48057879  0.47058676    -0.03000
C784        C  0.25669013  0.49497320  0.45125167    -0.03000
C785        C  0.29765785  0.49028655  0.47749057     0.07000
C786        C  0.29229701  0.48737319  0.52548955    -0.03200
Br787      Br  0.34135345  0.47297424  0.56625500    -0.01700
Br788      Br  0.23539336  0.47965723  0.60597737    -0.01800
Br789      Br  0.25385318  0.52038999  0.39189151    -0.01700
Br790      Br  0.15854454  0.48530073  0.44008547    -0.01700
C791        C  0.24261336  0.71339680  0.45303414    -0.02800
C792        C  0.25025476  0.73071251  0.49639403     0.06800
C793        C  0.28804265  0.71107172  0.51816939    -0.03000
C794        C  0.32803268  0.70992823  0.49294138    -0.03000
C795        C  0.32542205  0.69816676  0.44611199     0.07000
C796        C  0.27974536  0.69353094  0.42873756    -0.03200
Br797      Br  0.26407915  0.65369327  0.38036678    -0.01700
Br798      Br  0.18071534  0.71385536  0.43216563    -0.01800
Br799      Br  0.38168658  0.72749938  0.52375747    -0.01700
Br800      Br  0.28780356  0.70469511  0.58292065    -0.01700
C801        C  0.63927311  0.35223784  0.51769572    -0.02800
C802        C  0.67960715  0.37477391  0.52585953     0.06800
C803        C  0.67786891  0.41537489  0.55095713    -0.03000
C804        C  0.63588232  0.43601544  0.56029945    -0.03000
C805        C  0.59688270  0.42107916  0.53824024     0.07000
C806        C  0.59736569  0.37629740  0.52192347    -0.03200
Br807      Br  0.54203673  0.34658345  0.50953977    -0.01700
Br808      Br  0.64166347  0.28859418  0.50566533    -0.01800
Br809      Br  0.63091039  0.48502280  0.60262866    -0.01700
Br810      Br  0.73238259  0.44560277  0.56955766    -0.01700
C811        C  0.69783977  0.72162547  0.50517380    -0.02800
C812        C  0.68171399  0.76591259  0.51224316     0.06800
C813        C  0.64070226  0.78148628  0.49288653    -0.03000
C814        C  0.61556887  0.75276692  0.46539740    -0.03000
C815        C  0.63022273  0.70692992  0.46051338     0.07000
C816        C  0.67319873  0.69293857  0.47767154    -0.03200
Br817      Br  0.70058792  0.63603185  0.46050847    -0.01700
Br818      Br  0.75509048  0.70085224  0.53171373    -0.01800
Br819      Br  0.56336100  0.77876362  0.43366924    -0.01700
Br820      Br  0.61907149  0.84220193  0.50575283    -0.01700
C821        C  0.38536096  0.53726444  0.17442754    -0.02800
C822        C  0.36603346  0.58113798  0.17480642     0.06800
C823        C  0.40039134  0.61019590  0.18690207    -0.03000
C824        C  0.42048495  0.60246204  0.22986622    -0.03000
C825        C  0.41846074  0.55817574  0.24709265     0.07000
C826        C  0.40918932  0.52406555  0.21458188    -0.03200
Br827      Br  0.42543976  0.46313797  0.22560365    -0.01700
Br828      Br  0.36971954  0.49690414  0.12663306    -0.01800
Br829      Br  0.44006234  0.65247134  0.26456169    -0.01700
Br830      Br  0.42138718  0.65200070  0.14464705    -0.01700
C831        C  0.62500167  0.70338634  0.27432198    -0.02800
C832        C  0.59359283  0.72622383  0.24575769     0.06800
C833        C  0.56040794  0.70085502  0.22417185    -0.03000
C834        C  0.55195495  0.65843427  0.24124002    -0.03000
C835        C  0.56970122  0.64770876  0.28404464     0.07000
C836        C  0.60965649  0.66757572  0.29845833    -0.03200
Br837      Br  0.63896785  0.65130583  0.35410736    -0.01700
Br838      Br  0.68559578  0.72276913  0.28415296    -0.01800
Br839      Br  0.52870338  0.61201896  0.20324006    -0.01700
Br840      Br  0.52713764  0.72473692  0.17345766    -0.01700
C841        C  0.74048784  0.54082776  0.41601119    -0.02800
C842        C  0.74700302  0.57051378  0.38092990     0.06800
C843        C  0.71742094  0.57070877  0.34228171    -0.03000
C844        C  0.67905770  0.54496938  0.34204727    -0.03000
C845        C  0.66827068  0.52303770  0.38144381     0.07000
C846        C  0.70156094  0.51654424  0.41579777    -0.03200
Br847      Br  0.69278644  0.47649368  0.46414069    -0.01700
Br848      Br  0.78598143  0.53249031  0.46341539    -0.01800
Br849      Br  0.64134237  0.53998629  0.28827267    -0.01700
Br850      Br  0.72814078  0.60394600  0.28804247    -0.01700
C851        C  0.52874670  0.29455337  0.39070039    -0.02800
C852        C  0.57129623  0.29829930  0.37048518     0.06800
C853        C  0.59747105  0.32961265  0.39344766    -0.03000
C854        C  0.57579530  0.37181200  0.40044356    -0.03000
C855        C  0.52778993  0.37552436  0.39880730     0.07000
C856        C  0.50441875  0.33492700  0.40224987    -0.03200
Br857      Br  0.44436934  0.33386647  0.42675542    -0.01700
Br858      Br  0.50756034  0.23618433  0.40209637    -0.01800
Br859      Br  0.61113859  0.42205145  0.41245189    -0.01700
Br860      Br  0.66244055  0.32199276  0.39537073    -0.01700
C861        C  0.66574659  0.58187978  0.65969257    -0.02800
C862        C  0.64984659  0.58765022  0.70388982     0.06800
C863        C  0.60841767  0.61222625  0.71079718    -0.03000
C864        C  0.57896275  0.62188505  0.67356534    -0.03000
C865        C  0.59062072  0.60538504  0.63020170     0.07000
C866        C  0.63731879  0.59281715  0.62321868    -0.03200
Br867      Br  0.66633517  0.59499725  0.56479205    -0.01700
Br868      Br  0.72878072  0.56357883  0.64832261    -0.01800
Br869      Br  0.53119241  0.66736052  0.67963983    -0.01700
Br870      Br  0.59373539  0.63500446  0.77025578    -0.01700
C871        C  0.49574765  0.51302016  0.66476611    -0.02800
C872        C  0.47809231  0.48753599  0.62786801     0.06800
C873        C  0.49465679  0.44261730  0.62077902    -0.03000
C874        C  0.53199191  0.42660840  0.64571814    -0.03000
C875        C  0.54533660  0.45033245  0.68429520     0.07000
C876        C  0.52870689  0.49364982  0.69325164    -0.03200
Br877      Br  0.54659947  0.52264551  0.74915623    -0.01700
Br878      Br  0.47340372  0.57229757  0.68162982    -0.01800
Br879      Br  0.55850690  0.36720186  0.63436902    -0.01700
Br880      Br  0.46334960  0.39919346  0.58341762    -0.01700
C881        C  0.27199088  0.59751841  0.54597736    -0.02800
C882        C  0.31949343  0.60284708  0.54299856     0.06800
C883        C  0.34679682  0.59497749  0.58142140    -0.03000
C884        C  0.33010998  0.57008118  0.61536520    -0.03000
C885        C  0.28363391  0.57351288  0.62322845     0.07000
C886        C  0.25378573  0.58847484  0.58869563    -0.03200
Br887      Br  0.18996904  0.59627544  0.60025089    -0.01700
Br888      Br  0.23190290  0.60775813  0.49530227    -0.01800
Br889      Br  0.37184542  0.54058644  0.65659586    -0.01700
Br890      Br  0.39342790  0.63475901  0.60026287    -0.01700
C891        C  0.50791305  0.82262688  0.59487429    -0.02800
C892        C  0.54763342  0.80849865  0.61867823     0.06800
C893        C  0.57577941  0.77526032  0.59893615    -0.03000
C894        C  0.55671127  0.74558888  0.56791044    -0.03000
C895        C  0.51321387  0.75469659  0.54818618     0.07000
C896        C  0.49217843  0.79696070  0.55765207    -0.03200
Br897      Br  0.44442362  0.82053795  0.51928627    -0.01700
Br898      Br  0.47657100  0.87737289  0.61309014    -0.01800
Br899      Br  0.59048390  0.69119230  0.55910162    -0.01700
Br900      Br  0.63905010  0.76704098  0.61710508    -0.01700
C901        C  0.19068125  0.15985227  0.99486071    -0.02800
C902        C  0.14305137  0.16675894  0.99965006     0.06800
C903        C  0.12603131  0.20923691  0.01667541    -0.03000
C904        C  0.15609759  0.24387030  0.02508795    -0.03000
C905        C  0.20245908  0.23547864  0.01917216     0.07000
C906        C  0.21992951  0.19266616  0.00875272    -0.03200
Br907      Br  0.28479738  0.17899851  0.01460415    -0.01700
Br908      Br  0.21923146  0.10832381  0.96682282    -0.01800
Br909      Br  0.13472985  0.30300223  0.04404633    -0.01700
Br910      Br  0.06264435  0.22273099  0.02845860    -0.01700
C911        C  0.26516237  0.03743809  0.04412697    -0.02800
C912        C  0.22191433  0.02799123  0.06261745     0.06800
C913        C  0.21170698  0.04708591  0.10536393    -0.03000
C914        C  0.23771758  0.08036883  0.12417691    -0.03000
C915        C  0.28278174  0.08217664  0.11073510     0.07000
C916        C  0.29664055  0.06113069  0.07057008    -0.03200
Br917      Br  0.35982963  0.06286964  0.05458313    -0.01700
Br918      Br  0.28660171  0.01712294  0.98636723    -0.01800
Br919      Br  0.21592009  0.11278611  0.17768854    -0.01700
Br920      Br  0.17322522  0.01963782  0.14675445    -0.01700
C921        C  0.07897006  0.08061437  0.21311503    -0.02800
C922        C  0.08544823  0.08847066  0.16704025     0.06800
C923        C  0.09735505  0.13138784  0.15444111    -0.03000
C924        C  0.08718348  0.16823601  0.18171131    -0.03000
C925        C  0.07383599  0.16154307  0.22619202     0.07000
C926        C  0.07260502  0.11763975  0.24307121    -0.03200
Br927      Br  0.06217921  0.10869580  0.30613921    -0.01700
Br928      Br  0.09328393  0.02230761  0.23628581    -0.01800
Br929      Br  0.08859282  0.22755734  0.15634100    -0.01700
Br930      Br  0.13131370  0.13846072  0.10123896    -0.01700
C931        C  0.98086828  0.01969265  0.25324099    -0.02800
C932        C  0.96192461  0.06331366  0.24438765     0.06800
C933        C  0.96541557  0.07688215  0.19979387    -0.03000
C934        C  0.95495238  0.04426892  0.16768750    -0.03000
C935        C  0.97644553  0.00178827  0.17258035     0.07000
C936        C  0.99174804  0.99000189  0.21647014    -0.03200
Br937      Br  0.02337932  0.93398635  0.22662892    -0.01700
Br938      Br  0.98554658  0.99966757  0.31445829    -0.01800
Br939      Br  0.89075366  0.04199447  0.15716842    -0.01700
Br940      Br  0.96111741  0.13902430  0.18445268    -0.01700
C941        C  0.06610624  0.76273002  0.08792669    -0.02800
C942        C  0.08378676  0.79088076  0.12269348     0.06800
C943        C  0.11538456  0.82236167  0.11051913    -0.03000
C944        C  0.13648055  0.81348426  0.07045301    -0.03000
C945        C  0.10427958  0.81013268  0.03538794     0.07000
C946        C  0.07416937  0.77529276  0.04230801    -0.03200
Br947      Br  0.05752190  0.73970028  0.99119191    -0.01700
Br948      Br  0.04163024  0.70608876  0.10155047    -0.01800
Br949      Br  0.17785172  0.76209529  0.07887444    -0.01700
Br950      Br  0.11991726  0.87997591  0.14049578    -0.01700
C951        C  0.09030016  0.08456550  0.77800495    -0.02800
C952        C  0.09965490  0.07595198  0.82433922     0.06800
C953        C  0.14483707  0.07496364  0.83972693    -0.03000
C954        C  0.17713625  0.09310512  0.81440315    -0.03000
C955        C  0.17101695  0.09161443  0.76752149     0.07000
C956        C  0.12733504  0.08787523  0.74860415    -0.03200
Br957      Br  0.11904049  0.08815218  0.68416803    -0.01700
Br958      Br  0.02927553  0.09013494  0.75420395    -0.01800
Br959      Br  0.23213350  0.10997062  0.84586151    -0.01700
Br960      Br  0.16802410  0.04002835  0.88886896    -0.01700
C961        C  0.06412339  0.96178691  0.71916657    -0.02800
C962        C  0.03348235  0.93382503  0.69729446     0.06800
C963        C  0.98931747  0.95261083  0.70188343    -0.03000
C964        C  0.97604696  0.96593407  0.74603622    -0.03000
C965        C  0.00987232  0.96433419  0.78070368     0.07000
C966        C  0.05571593  0.96785187  0.76590121    -0.03200
Br967      Br  0.10727017  0.96808816  0.80526119    -0.01700
Br968      Br  0.12337698  0.96654546  0.69400420    -0.01800
Br969      Br  0.91643068  0.98984008  0.75669268    -0.01700
Br970      Br  0.95679020  0.97245319  0.64910886    -0.01700
C971        C  0.00163393  0.27167878  0.91271370    -0.02800
C972        C  0.04617726  0.27902190  0.89827368     0.06800
C973        C  0.07965490  0.24874747  0.91294353    -0.03000
C974        C  0.06823520  0.20377144  0.91442168    -0.03000
C975        C  0.02227785  0.19252767  0.92155705     0.07000
C976        C  0.99031924  0.22846124  0.92600508    -0.03200
Br977      Br  0.93154797  0.21834494  0.94865888    -0.01700
Br978      Br  0.95573436  0.31882389  0.90890984    -0.01800
Br979      Br  0.11424273  0.16347488  0.89287037    -0.01700
Br980      Br  0.14138131  0.26774345  0.91696218    -0.01700
C981        C  0.74151200  0.03192734  0.92554458    -0.02800
C982        C  0.74197450  0.07322640  0.90366235     0.06800
C983        C  0.76733996  0.10432983  0.92759511    -0.03000
C984        C  0.81203445  0.08930237  0.93841546    -0.03000
C985        C  0.82124177  0.04220248  0.94127346     0.07000
C986        C  0.78353658  0.01388297  0.94166876    -0.03200
Br987      Br  0.78865022  0.95215171  0.95944369    -0.01700
Br988      Br  0.68663481  0.99993498  0.92572763    -0.01800
Br989      Br  0.85921537  0.13155776  0.94005118    -0.01700
Br990      Br  0.74935344  0.16660206  0.92281296    -0.01700
C991        C  0.15577415  0.82923148  0.92749556    -0.02800
C992        C  0.16032597  0.87651124  0.93091599     0.06800
C993        C  0.18285866  0.89332417  0.96862076    -0.03000
C994        C  0.19104654  0.86720400  0.00555912    -0.03000
C995        C  0.20030775  0.82154814  0.99713022     0.07000
C996        C  0.17903316  0.80162339  0.95943673    -0.03200
Br997      Br  0.18268965  0.73745502  0.95363481    -0.01700
Br998      Br  0.12245746  0.80152162  0.87923100    -0.01800
Br999      Br  0.20384718  0.89741560  0.06207714    -0.01700
Br1000     Br  0.22519645  0.93751365  0.96086351    -0.01700
C1001       C  0.80570292  0.13973737  0.04751351    -0.02800
C1002       C  0.82555049  0.18024870  0.03874209     0.06800
C1003       C  0.87125348  0.18749668  0.05004197    -0.03000
C1004       C  0.89937846  0.15183988  0.06302374    -0.03000
C1005       C  0.88111138  0.10872179  0.06573747     0.07000
C1006       C  0.83353218  0.10336099  0.06100904    -0.03200
Br1007     Br  0.80526549  0.04711143  0.07180705    -0.01700
Br1008     Br  0.74081174  0.13484190  0.04160535    -0.01800
Br1009     Br  0.96319330  0.16463331  0.07190956    -0.01700
Br1010     Br  0.89619993  0.24696546  0.04868526    -0.01700
C1011       C  0.94946753  0.76887898  0.07321788    -0.02800
C1012       C  0.92414631  0.74083928  0.04499661     0.06800
C1013       C  0.94310185  0.73652308  0.00176847    -0.03000
C1014       C  0.95204581  0.77714536  0.97990388    -0.03000
C1015       C  0.95445342  0.81667221  0.00732588     0.07000
C1016       C  0.96023383  0.81047053  0.05485083    -0.03200
Br1017     Br  0.98087819  0.85670409  0.09505683    -0.01700
Br1018     Br  0.94494977  0.76218920  0.13744301    -0.01800
Br1019     Br  0.95582291  0.77774275  0.91509201    -0.01700
Br1020     Br  0.94046230  0.68022423  0.97034698    -0.01700
loop_ 
_geom_bond_atom_site_label_1 
_geom_bond_atom_site_label_2 
_geom_bond_distance 
_geom_bond_site_symmetry_2 
_ccdc_geom_bond_type 
C1            N2   1.347       .  A
C1            N6   1.396       .  A
C1          C301   1.506       .  S
N2            C3   1.350       .  A
C3            N4   1.348       .  A
C3         C1012   1.502       .  S
N4            C5   1.349   1_554  A
C5            N6   1.394   1_556  A
C5          C559   1.515       .  S
C7            N8   1.334       .  A
C7           N12   1.404       .  A
C7          C222   1.517       .  S
N8            C9   1.331       .  A
C9           N10   1.349   1_554  A
C9         C1002   1.426       .  S
N10          C11   1.349       .  A
C11          N12   1.406   1_556  A
C11         C493   1.532       .  S
C13          N14   1.411       .  A
C13          N18   1.353       .  A
C13         C169   1.543       .  S
N14          C15   1.407   1_554  A
C15          N16   1.340       .  A
C15         C427   1.538       .  S
N16          C17   1.339   1_556  A
C17          N18   1.352       .  A
C17         C995   1.455   1_554  S
C19          N20   1.398       .  A
C19          N24   1.350       .  A
C19         C491   1.529       .  S
N20          C21   1.398       .  A
C21          N22   1.354       .  A
C21         C558   1.531   1_545  S
N22          C23   1.357       .  A
C23          N24   1.357       .  A
C23         C982   1.497       .  S
C25          N26   1.409       .  A
C25          N30   1.341       .  A
C25         C492   1.532   1_455  S
N26          C27   1.411       .  A
C27          N28   1.359       .  A
C27         C361   1.558       .  S
N28          C29   1.355       .  A
C29          N30   1.330       .  A
C29         C972   1.483       .  S
C31          N32   1.351       .  A
C31          N36   1.403       .  A
C31         C557   1.525   1_455  S
N32          C33   1.352       .  A
C33          N34   1.355       .  A
C33         C962   1.507       .  S
N34          C35   1.355       .  A
C35          N36   1.400       .  A
C35         C426   1.541       .  S
C37          N38   1.346       .  A
C37          N42   1.388       .  A
C37         C359   1.495       .  S
N38          C39   1.341       .  A
C39          N40   1.356       .  A
C39         C955   1.441       .  S
N40          C41   1.353       .  A
C41          N42   1.388       .  A
C41         C425   1.510   1_545  S
C43          N44   1.409       .  A
C43          N48   1.353       .  A
C43         C293   1.528   1_455  S
N44          C45   1.403       .  A
C45          N46   1.340       .  A
C45         C176   1.540       .  S
N46          C47   1.349       .  A
C47          N48   1.345       .  A
C47         C942   1.449       .  S
C49          N50   1.362       .  A
C49          N54   1.401       .  A
C49         C221   1.534       .  S
N50          C51   1.360       .  A
C51          N52   1.340       .  A
C51         C932   1.484       .  S
N52          C53   1.345       .  A
C53          N54   1.395       .  A
C53         C308   1.523   1_545  S
C55          N56   1.357       .  A
C55          N60   1.408       .  A
C55         C223   1.542   1_455  S
N56          C57   1.351       .  A
C57          N58   1.346       .  A
C57         C925   1.457       .  S
N58          C59   1.348       .  A
C59          N60   1.405       .  A
C59         C104   1.540       .  S
Zr61         O62   2.388       .  S
Zr61         O63   2.613       .  S
Zr61         O64   2.608       .  S
Zr61         O67   2.594       .  S
Zr61         O69   2.387       .  S
Zr61         O70   2.405       .  S
Zr61         O71   2.443       .  S
Zr61         O72   2.435       .  S
O62         H118   0.985       .  S
O62         H126   0.989       .  S
O63          C83   1.318       .  A
O64          C85   1.324       .  A
O65         Zr75   2.449       .  S
O65          C84   1.285       .  A
O66         Zr74   2.523       .  S
O66          C85   1.299       .  A
O67          C84   1.318       .  A
O68         Zr76   2.431       .  S
O68          C83   1.275       .  A
O69         Zr74   2.432       .  S
O69         Zr76   2.402       .  S
O70         Zr75   2.424       .  S
O70         Zr76   2.372       .  S
O70         H105   0.965       .  S
O71         Zr74   2.410       .  S
O71         Zr91   2.403       .  S
O71         H108   0.959       .  S
O72         Zr75   2.409       .  S
O72         Zr91   2.398       .  S
Zr73         O98   2.439       .  S
Zr73         O92   2.526       .  S
Zr73        O100   2.528       .  S
Zr73         O88   2.485       .  S
Zr73         O79   2.412       .  S
Zr73         O80   2.437       .  S
Zr73         O81   2.377       .  S
Zr73         O82   2.375       .  S
Zr74         O93   2.434       .  S
Zr74         O86   2.431       .  S
Zr74         O87   2.502       .  S
Zr74         O80   2.432       .  S
Zr74         O81   2.424       .  S
Zr75         O77   2.437       .  S
Zr75         O99   2.440       .  S
Zr75        O101   2.509       .  S
Zr75         O79   2.385       .  S
Zr75         O82   2.407       .  S
Zr76        O102   2.437       .  S
Zr76        O103   2.438       .  S
Zr76         O78   2.432       .  S
Zr76         O79   2.397       .  S
Zr76         O80   2.401       .  S
O77         H114   0.990       .  S
O78         H109   0.990       .  S
O78         H123   0.990       .  S
O80         H106   0.964       .  S
O81         Zr91   2.392       .  S
O82         Zr91   2.377       .  S
O82         H107   0.966       .  S
C83         C643   1.543       .  S
C84         C667   1.525       .  S
C85         C629   1.562       .  S
O86         H122   0.990       .  S
O87          C89   1.290       .  A
O88          C89   1.302       .  A
C89         C331   1.525       .  S
O90         Zr91   2.418       .  S
O90         H119   0.988       .  S
Zr91         O94   2.440       .  S
Zr91         O95   2.439       .  S
Zr91         O96   2.436       .  S
O92          C97   1.306       .  A
O93         H110   0.990       .  S
O93         H125   0.989       .  S
O94         H111   0.990       .  S
O95         H115   0.990       .  S
O95         H124   0.990       .  S
O96          C97   1.277       .  A
C97         C127   1.517       .  S
O98         H117   0.990       .  S
O98         H121   0.990       .  S
O99         H113   0.990       .  S
O99         H120   0.989       .  S
O100        C104   1.307       .  A
O101        C104   1.295       .  A
O102        H112   0.990       .  S
O103        H116   0.990       .  S
C127        N128   1.351       .  A
C127        N132   1.399       .  A
N128        C129   1.345       .  A
C129        N130   1.347       .  A
C129        C915   1.445       .  S
N130        C131   1.345       .  A
C131        N132   1.397       .  A
C131        C161   1.522   1_545  S
Zr133       O134   2.433       .  S
Zr133       O135   2.541       .  S
Zr133       O136   2.548       .  S
Zr133       O139   2.615       .  S
Zr133       O141   2.408       .  S
Zr133       O142   2.406       .  S
Zr133       O143   2.444       .  S
Zr133       O144   2.406       .  S
O134        H190   0.990       .  S
O134        H198   0.989       .  S
O135        C155   1.304       .  A
O136        C157   1.309       .  A
O137       Zr147   2.427       .  S
O137        C156   1.282       .  A
O138       Zr146   2.499       .  S
O138        C157   1.294       .  A
O139        C156   1.323       .  A
O140       Zr148   2.424       .  S
O140        C155   1.270       .  A
O141       Zr146   2.399       .  S
O141       Zr148   2.382       .  S
O142       Zr147   2.392       .  S
O142       Zr148   2.399       .  S
O142        H177   0.965       .  S
O143       Zr146   2.404       .  S
O143       Zr163   2.375       .  S
O143        H180   0.962       .  S
O144       Zr147   2.402       .  S
O144       Zr163   2.407       .  S
Zr145       O170   2.403       .  S
Zr145       O164   2.606       .  S
Zr145       O172   2.621       .  S
Zr145       O160   2.540       .  S
Zr145       O151   2.411       .  S
Zr145       O152   2.445       .  S
Zr145       O153   2.396       .  S
Zr145       O154   2.372       .  S
Zr146       O165   2.437       .  S
Zr146       O158   2.437       .  S
Zr146       O159   2.487       .  S
Zr146       O152   2.411       .  S
Zr146       O153   2.426       .  S
Zr147       O149   2.437       .  S
Zr147       O171   2.426       .  S
Zr147       O173   2.433       .  S
Zr147       O151   2.384       .  S
Zr147       O154   2.421       .  S
Zr148       O174   2.435       .  S
Zr148       O175   2.440       .  S
Zr148       O150   2.442       .  S
Zr148       O151   2.405       .  S
Zr148       O152   2.382       .  S
O149        H186   0.990       .  S
O150        H181   0.990       .  S
O150        H195   0.990       .  S
O152        H178   0.963       .  S
O153       Zr163   2.381       .  S
O154       Zr163   2.394       .  S
O154        H179   0.966       .  S
C155        C661   1.499       .  S
C156        C645   1.541       .  S
C157        C639   1.530       .  S
O158        H194   0.990       .  S
O159        C161   1.293       .  A
O160        C161   1.311       .  A
O162       Zr163   2.423       .  S
O162        H191   0.989       .  S
Zr163       O166   2.435       .  S
Zr163       O167   2.440       .  S
Zr163       O168   2.427       .  S
O164        C169   1.322       .  A
O165        H182   0.990       .  S
O165        H197   0.990       .  S
O166        H183   0.990       .  S
O167        H187   0.990       .  S
O167        H196   0.988       .  S
O168        C169   1.274       .  A
O170        H189   0.988       .  S
O170        H193   0.990       .  S
O171        H185   0.989       .  S
O171        H192   0.990       .  S
O172        C176   1.324       .  A
O173        C176   1.276       .  A
O174        H184   0.990       .  S
O175        H188   0.990       .  S
Zr199       O200   2.426       .  S
Zr199       O201   2.548       .  S
Zr199       O202   2.539       .  S
Zr199       O205   2.572       .  S
Zr199       O207   2.386       .  S
Zr199       O208   2.396       .  S
Zr199       O209   2.427       .  S
Zr199       O210   2.425       .  S
O200        H256   0.989       .  S
O200        H264   0.989       .  S
O201        C221   1.308       .  A
O202        C223   1.309       .  A
O203       Zr213   2.439       .  S
O203        C222   1.279       .  A
O204       Zr212   2.523       .  S
O204        C223   1.300       .  A
O205        C222   1.321       .  A
O206       Zr214   2.450       .  S
O206        C221   1.280       .  A
O207       Zr212   2.434       .  S
O207       Zr214   2.390       .  S
O208       Zr213   2.450       .  S
O208       Zr214   2.379       .  S
O208        H243   0.966       .  S
O209       Zr212   2.423       .  S
O209       Zr229   2.390       .  S
O209        H246   0.962       .  S
O210       Zr213   2.420       .  S
O210       Zr229   2.396       .  S
Zr211       O236   2.393       .  S
Zr211       O230   2.592       .  S
Zr211       O238   2.594       .  S
Zr211       O226   2.531       .  S
Zr211       O217   2.401       .  S
Zr211       O218   2.434       .  S
Zr211       O219   2.382       .  S
Zr211       O220   2.387       .  S
Zr212       O231   2.438       .  S
Zr212       O224   2.434       .  S
Zr212       O225   2.546       .  S
Zr212       O218   2.418       .  S
Zr212       O219   2.412       .  S
Zr213       O215   2.436       .  S
Zr213       O237   2.442       .  S
Zr213       O239   2.511       .  S
Zr213       O217   2.381       .  S
Zr213       O220   2.416       .  S
Zr214       O240   2.438       .  S
Zr214       O241   2.434       .  S
Zr214       O216   2.443       .  S
Zr214       O217   2.404       .  S
Zr214       O218   2.413       .  S
O215        H252   0.990       .  S
O216        H247   0.989       .  S
O216        H261   0.990       .  S
O218        H244   0.960       .  S
O219       Zr229   2.410       .  S
O220       Zr229   2.408       .  S
O220        H245   0.966       .  S
O224        H260   0.990       .  S
O225        C227   1.303       .  A
O226        C227   1.308       .  A
C227        C655   1.552       .  S
O228       Zr229   2.440       .  S
O228        H257   0.990       .  S
Zr229       O232   2.438       .  S
Zr229       O233   2.438       .  S
Zr229       O234   2.431       .  S
O230        C235   1.325       .  A
O231        H248   0.990       .  S
O231        H263   0.990       .  S
O232        H249   0.991       .  S
O233        H253   0.990       .  S
O233        H262   0.990       .  S
O234        C235   1.273       .  A
C235        C631   1.540       .  S
O236        H255   0.989       .  S
O236        H259   0.987       .  S
O237        H251   0.990       .  S
O237        H258   0.989       .  S
O238        C242   1.318       .  A
O239        C242   1.294       .  A
O240        H250   0.990       .  S
O241        H254   0.991       .  S
C242        C625   1.562       .  S
Zr265       O266   2.444       .  S
Zr265       O267   2.463       .  S
Zr265       O268   2.560       .  S
Zr265       O271   2.513       .  S
Zr265       O273   2.379       .  S
Zr265       O274   2.399       .  S
Zr265       O275   2.413       .  S
Zr265       O276   2.411       .  S
O266        H322   0.990       .  S
O266        H330   0.990       .  S
O267        C287   1.294       .  A
O268        C289   1.315       .  A
O269       Zr279   2.495       .  S
O269        C288   1.293       .  A
O270       Zr278   2.474       .  S
O270        C289   1.285       .  A
O271        C288   1.304       .  A
O272       Zr280   2.464       .  S
O272        C287   1.279       .  A
O273       Zr278   2.414       .  S
O273       Zr280   2.400       .  S
O274       Zr279   2.417       .  S
O274       Zr280   2.383       .  S
O274        H309   0.966       .  S
O275       Zr278   2.425       .  S
O275       Zr295   2.401       .  S
O275        H312   0.963       .  S
O276       Zr279   2.411       .  S
O276       Zr295   2.385       .  S
Zr277       O302   2.394       .  S
Zr277       O296   2.557       .  S
Zr277       O304   2.499       .  S
Zr277       O292   2.548       .  S
Zr277       O283   2.424       .  S
Zr277       O284   2.425       .  S
Zr277       O285   2.364       .  S
Zr277       O286   2.388       .  S
Zr278       O297   2.435       .  S
Zr278       O290   2.437       .  S
Zr278       O291   2.478       .  S
Zr278       O284   2.407       .  S
Zr278       O285   2.419       .  S
Zr279       O281   2.437       .  S
Zr279       O303   2.437       .  S
Zr279       O305   2.498       .  S
Zr279       O283   2.405       .  S
Zr279       O286   2.420       .  S
Zr280       O306   2.438       .  S
Zr280       O307   2.436       .  S
Zr280       O282   2.439       .  S
Zr280       O283   2.409       .  S
Zr280       O284   2.418       .  S
O281        H318   0.990       .  S
O282        H313   0.990       .  S
O282        H327   0.990       .  S
O284        H310   0.962       .  S
O285       Zr295   2.403       .  S
O286       Zr295   2.382       .  S
O286        H311   0.966       .  S
C287        C649   1.508       .  S
C288        C637   1.515       .  S
C289        C633   1.531       .  S
O290        H326   0.989       .  S
O291        C293   1.291       .  A
O292        C293   1.307       .  A
O294       Zr295   2.436       .  S
O294        H323   0.990       .  S
Zr295       O298   2.439       .  S
Zr295       O299   2.439       .  S
Zr295       O300   2.418       .  S
O296        C301   1.305       .  A
O297        H314   0.990       .  S
O297        H329   0.990       .  S
O298        H315   0.990       .  S
O299        H319   0.990       .  S
O299        H328   0.990       .  S
O300        C301   1.268       .  A
O302        H321   0.988       .  S
O302        H325   0.990       .  S
O303        H317   0.990       .  S
O303        H324   0.990       .  S
O304        C308   1.304       .  A
O305        C308   1.292       .  A
O306        H316   0.990       .  S
O307        H320   0.991       .  S
C331        N332   1.407       .  A
C331        N336   1.349       .  A
N332        C333   1.406   1_554  A
C333        N334   1.351       .  A
C333        C360   1.535       .  S
N334        C335   1.337   1_556  A
C335        N336   1.328       .  A
C335        C905   1.440       .  S
Zr337       O338   2.431       .  S
Zr337       O339   2.532       .  S
Zr337       O340   2.541       .  S
Zr337       O343   2.497       .  S
Zr337       O345   2.366       .  S
Zr337       O346   2.397       .  S
Zr337       O347   2.427       .  S
Zr337       O348   2.417       .  S
O338        H394   0.990       .  S
O338        H402   0.989       .  S
O339        C359   1.307       .  A
O340        C361   1.312       .  A
O341       Zr351   2.515       .  S
O341        C360   1.293       .  A
O342       Zr350   2.546       .  S
O342        C361   1.302       .  A
O343        C360   1.304       .  A
O344       Zr352   2.396       .  S
O344        C359   1.268       .  A
O345       Zr350   2.406       .  S
O345       Zr352   2.407       .  S
O346       Zr351   2.425       .  S
O346       Zr352   2.390       .  S
O346        H381   0.966       .  S
O347       Zr350   2.401       .  S
O347       Zr367   2.392       .  S
O347        H384   0.961       .  S
O348       Zr351   2.384       .  S
O348       Zr367   2.387       .  S
Zr349       O374   2.425       .  S
Zr349       O368   2.529       .  S
Zr349       O376   2.537       .  S
Zr349       O364   2.596       .  S
Zr349       O355   2.416       .  S
Zr349       O356   2.418       .  S
Zr349       O357   2.393       .  S
Zr349       O358   2.413       .  S
Zr350       O369   2.435       .  S
Zr350       O362   2.435       .  S
Zr350       O363   2.480       .  S
Zr350       O356   2.432       .  S
Zr350       O357   2.426       .  S
Zr351       O353   2.438       .  S
Zr351       O375   2.437       .  S
Zr351       O377   2.473       .  S
Zr351       O355   2.416       .  S
Zr351       O358   2.434       .  S
Zr352       O378   2.442       .  S
Zr352       O379   2.438       .  S
Zr352       O354   2.440       .  S
Zr352       O355   2.377       .  S
Zr352       O356   2.402       .  S
O353        H390   0.990       .  S
O354        H385   0.990       .  S
O354        H399   0.990       .  S
O356        H382   0.962       .  S
O357       Zr367   2.400       .  S
O358       Zr367   2.380       .  S
O358        H383   0.966       .  S
O362        H398   0.990       .  S
O363        C365   1.295       .  A
O364        C365   1.316       .  A
C365        C671   1.548       .  S
O366       Zr367   2.442       .  S
O366        H395   0.991       .  S
Zr367       O370   2.437       .  S
Zr367       O371   2.439       .  S
Zr367       O372   2.434       .  S
O368        C373   1.304       .  A
O369        H386   0.991       .  S
O369        H401   0.990       .  S
O370        H387   0.990       .  S
O371        H391   0.990       .  S
O371        H400   0.990       .  S
O372        C373   1.279       .  A
C373        C607   1.509       .  S
O374        H393   0.989       .  S
O374        H397   0.990       .  S
O375        H389   0.991       .  S
O375        H396   0.990       .  S
O376        C380   1.313       .  A
O377        C380   1.286       .  A
O378        H388   0.990       .  S
O379        H392   0.990       .  S
C380        C617   1.523       .  S
Zr403       O404   2.400       .  S
Zr403       O405   2.564       .  S
Zr403       O406   2.562       .  S
Zr403       O409   2.600       .  S
Zr403       O411   2.396       .  S
Zr403       O412   2.384       .  S
Zr403       O413   2.441       .  S
Zr403       O414   2.414       .  S
O404        H460   0.987       .  S
O404        H468   0.990       .  S
O405        C425   1.306       .  A
O406        C427   1.317       .  A
O407       Zr417   2.430       .  S
O407        C426   1.285       .  A
O408       Zr416   2.515       .  S
O408        C427   1.297       .  A
O409        C426   1.317       .  A
O410       Zr418   2.396       .  S
O410        C425   1.267       .  A
O411       Zr416   2.418       .  S
O411       Zr418   2.393       .  S
O412       Zr417   2.393       .  S
O412       Zr418   2.395       .  S
O412        H447   0.966       .  S
O413       Zr416   2.416       .  S
O413       Zr433   2.379       .  S
O413        H450   0.961       .  S
O414       Zr417   2.388       .  S
O414       Zr433   2.410       .  S
Zr415       O440   2.439       .  S
Zr415       O434   2.556       .  S
Zr415       O442   2.574       .  S
Zr415       O430   2.470       .  S
Zr415       O421   2.386       .  S
Zr415       O422   2.441       .  S
Zr415       O423   2.403       .  S
Zr415       O424   2.382       .  S
Zr416       O435   2.438       .  S
Zr416       O428   2.434       .  S
Zr416       O429   2.504       .  S
Zr416       O422   2.421       .  S
Zr416       O423   2.429       .  S
Zr417       O419   2.439       .  S
Zr417       O441   2.435       .  S
Zr417       O443   2.438       .  S
Zr417       O421   2.368       .  S
Zr417       O424   2.385       .  S
Zr418       O444   2.440       .  S
Zr418       O445   2.437       .  S
Zr418       O420   2.443       .  S
Zr418       O421   2.381       .  S
Zr418       O422   2.379       .  S
O419        H456   0.990       .  S
O420        H451   0.990       .  S
O420        H465   0.990       .  S
O422        H448   0.960       .  S
O423       Zr433   2.392       .  S
O424       Zr433   2.388       .  S
O424        H449   0.965       .  S
O428        H464   0.990       .  S
O429        C431   1.296       .  A
O430        C431   1.295       .  A
C431        C603   1.501       .  S
O432       Zr433   2.429       .  S
O432        H461   0.991       .  S
Zr433       O436   2.437       .  S
Zr433       O437   2.444       .  S
Zr433       O438   2.407       .  S
O434        C439   1.311       .  A
O435        H452   0.990       .  S
O435        H467   0.990       .  S
O436        H453   0.990       .  S
O437        H457   0.990       .  S
O437        H466   0.990       .  S
O438        C439   1.270       .  A
C439        C609   1.507       .  S
O440        H459   0.991       .  S
O440        H463   0.990       .  S
O441        H455   0.990       .  S
O441        H462   0.988       .  S
O442        C446   1.311       .  A
O443        C446   1.287       .  A
O444        H454   0.990       .  S
O445        H458   0.990       .  S
C446        C663   1.517       .  S
Zr469       O470   2.430       .  S
Zr469       O471   2.574       .  S
Zr469       O472   2.571       .  S
Zr469       O475   2.518       .  S
Zr469       O477   2.370       .  S
Zr469       O478   2.393       .  S
Zr469       O479   2.435       .  S
Zr469       O480   2.439       .  S
O470        H526   0.990       .  S
O470        H534   0.989       .  S
O471        C491   1.311       .  A
O472        C493   1.316       .  A
O473       Zr483   2.491       .  S
O473        C492   1.288       .  A
O474       Zr482   2.481       .  S
O474        C493   1.291       .  A
O475        C492   1.309       .  A
O476       Zr484   2.431       .  S
O476        C491   1.277       .  A
O477       Zr482   2.421       .  S
O477       Zr484   2.403       .  S
O478       Zr483   2.436       .  S
O478       Zr484   2.377       .  S
O478        H513   0.966       .  S
O479       Zr482   2.412       .  S
O479       Zr499   2.421       .  S
O479        H516   0.962       .  S
O480       Zr483   2.408       .  S
O480       Zr499   2.419       .  S
Zr481       O506   2.430       .  S
Zr481       O500   2.537       .  S
Zr481       O508   2.521       .  S
Zr481       O496   2.501       .  S
Zr481       O487   2.412       .  S
Zr481       O488   2.414       .  S
Zr481       O489   2.367       .  S
Zr481       O490   2.391       .  S
Zr482       O501   2.436       .  S
Zr482       O494   2.435       .  S
Zr482       O495   2.481       .  S
Zr482       O488   2.416       .  S
Zr482       O489   2.411       .  S
Zr483       O485   2.436       .  S
Zr483       O507   2.439       .  S
Zr483       O509   2.489       .  S
Zr483       O487   2.406       .  S
Zr483       O490   2.442       .  S
Zr484       O510   2.439       .  S
Zr484       O511   2.437       .  S
Zr484       O486   2.438       .  S
Zr484       O487   2.387       .  S
Zr484       O488   2.396       .  S
O485        H522   0.990       .  S
O486        H517   0.990       .  S
O486        H531   0.990       .  S
O488        H514   0.963       .  S
O489       Zr499   2.380       .  S
O490       Zr499   2.382       .  S
O490        H515   0.966       .  S
O494        H530   0.990       .  S
O495        C497   1.287       .  A
O496        C497   1.304       .  A
C497        C613   1.515       .  S
O498       Zr499   2.435       .  S
O498        H527   0.989       .  S
Zr499       O502   2.443       .  S
Zr499       O503   2.440       .  S
Zr499       O504   2.476       .  S
O500        C505   1.308       .  A
O501        H518   0.990       .  S
O501        H533   0.990       .  S
O502        H519   0.989       .  S
O503        H523   0.990       .  S
O503        H532   0.990       .  S
O504        C505   1.286       .  A
C505        C619   1.543       .  S
O506        H525   0.987       .  S
O506        H529   0.989       .  S
O507        H521   0.990       .  S
O507        H528   0.990       .  S
O508        C512   1.310       .  A
O509        C512   1.288       .  A
O510        H520   0.990       .  S
O511        H524   0.990       .  S
C512        C657   1.532       .  S
Zr535       O536   2.419       .  S
Zr535       O537   2.580       .  S
Zr535       O538   2.548       .  S
Zr535       O541   2.551       .  S
Zr535       O543   2.406       .  S
Zr535       O544   2.403       .  S
Zr535       O545   2.441       .  S
Zr535       O546   2.409       .  S
O536        H592   0.987       .  S
O536        H600   0.988       .  S
O537        C557   1.312       .  A
O538        C559   1.305       .  A
O539       Zr549   2.489       .  S
O539        C558   1.292       .  A
O540       Zr548   2.464       .  S
O540        C559   1.295       .  A
O541        C558   1.310       .  A
O542       Zr550   2.431       .  S
O542        C557   1.272       .  A
O543       Zr548   2.415       .  S
O543       Zr550   2.388       .  S
O544       Zr549   2.410       .  S
O544       Zr550   2.405       .  S
O544        H579   0.966       .  S
O545       Zr548   2.416       .  S
O545       Zr565   2.379       .  S
O545        H582   0.962       .  S
O546       Zr549   2.392       .  S
O546       Zr565   2.399       .  S
Zr547       O572   2.443       .  S
Zr547       O566   2.510       .  S
Zr547       O574   2.478       .  S
Zr547       O562   2.497       .  S
Zr547       O553   2.415       .  S
Zr547       O554   2.417       .  S
Zr547       O555   2.378       .  S
Zr547       O556   2.383       .  S
Zr548       O567   2.437       .  S
Zr548       O560   2.432       .  S
Zr548       O561   2.516       .  S
Zr548       O554   2.397       .  S
Zr548       O555   2.411       .  S
Zr549       O551   2.440       .  S
Zr549       O573   2.429       .  S
Zr549       O575   2.470       .  S
Zr549       O553   2.407       .  S
Zr549       O556   2.415       .  S
Zr550       O576   2.434       .  S
Zr550       O577   2.437       .  S
Zr550       O552   2.439       .  S
Zr550       O553   2.404       .  S
Zr550       O554   2.395       .  S
O551        H588   0.990       .  S
O552        H583   0.990       .  S
O552        H597   0.990       .  S
O554        H580   0.965       .  S
O555       Zr565   2.389       .  S
O556       Zr565   2.377       .  S
O556        H581   0.966       .  S
O560        H596   0.990       .  S
O561        C563   1.296       .  A
O562        C563   1.298       .  A
C563        C621   1.526       .  S
O564       Zr565   2.427       .  S
O564        H593   0.990       .  S
Zr565       O568   2.435       .  S
Zr565       O569   2.439       .  S
Zr565       O570   2.419       .  S
O566        C571   1.301       .  A
O567        H584   0.990       .  S
O567        H599   0.990       .  S
O568        H585   0.990       .  S
O569        H589   0.990       .  S
O569        H598   0.990       .  S
O570        C571   1.275       .  A
C571        C601   1.498       .  S
O572        H591   0.990       .  S
O572        H595   0.991       .  S
O573        H587   0.989       .  S
O573        H594   0.990       .  S
O574        C578   1.298       .  A
O575        C578   1.287       .  A
O576        H586   0.990       .  S
O577        H590   0.990       .  S
C578        C651   1.500       .  S
C601        N602   1.386       .  A
C601        N606   1.353       .  A
N602        C603   1.383       .  A
C603        N604   1.358       .  A
N604        C605   1.346       .  A
C605        N606   1.349       .  A
C605        C892   1.482       .  S
C607        N608   1.392       .  A
C607        N612   1.354       .  A
N608        C609   1.391       .  A
C609        N610   1.347       .  A
N610        C611   1.349       .  A
C611        N612   1.352       .  A
C611        C885   1.448       .  S
C613        N614   1.348       .  A
C613        N618   1.408       .  A
N614        C615   1.329       .  A
C615        N616   1.331       .  A
C615        C875   1.421       .  S
N616        C617   1.335       .  A
C617        N618   1.404       .  A
C619        N620   1.402       .  A
C619        N624   1.361       .  A
N620        C621   1.399       .  A
C621        N622   1.349       .  A
N622        C623   1.343       .  A
C623        N624   1.359       .  A
C623        C862   1.469       .  S
C625        N626   1.351       .  A
C625        N630   1.417       .  A
N626        C627   1.354       .  A
C627        N628   1.353       .  A
C627        C852   1.494       .  S
N628        C629   1.348       .  A
C629        N630   1.416       .  A
C631        N632   1.410       .  A
C631        N636   1.329       .  A
N632        C633   1.414       .  A
C633        N634   1.348       .  A
N634        C635   1.341       .  A
C635        N636   1.331       .  A
C635        C842   1.431       .  S
C637        N638   1.397       .  A
C637        N642   1.342       .  A
N638        C639   1.401       .  A
C639        N640   1.363       .  A
N640        C641   1.356       .  A
C641        N642   1.336       .  A
C641        C832   1.470       .  S
C643        N644   1.405       .  A
C643        N648   1.350       .  A
N644        C645   1.407       .  A
C645        N646   1.356       .  A
N646        C647   1.359       .  A
C647        N648   1.354       .  A
C647        C822   1.515       .  S
C649        N650   1.392       .  A
C649        N654   1.341       .  A
N650        C651   1.398       .  A
C651        N652   1.355       .  A
N652        C653   1.338       .  A
C653        N654   1.329       .  A
C653        C812   1.438       .  S
C655        N656   1.409       .  A
C655        N660   1.366       .  A
N656        C657   1.405       .  A
C657        N658   1.340       .  A
N658        C659   1.330       .  A
C659        N660   1.355       .  A
C659        C802   1.460       .  S
C661        N662   1.394       .  A
C661        N666   1.348       .  A
N662        C663   1.391       .  A
C663        N664   1.358       .  A
N664        C665   1.349       .  A
C665        N666   1.347       .  A
C665        C792   1.479       .  S
C667        N668   1.346       .  A
C667        N672   1.407       .  A
N668        C669   1.346       .  A
C669        N670   1.357       .  A
C669        C782   1.498       .  S
N670        C671   1.355       .  A
C671        N672   1.406       .  A
O673       Zr709   2.471       .  S
O673        C684   1.301   1_554  A
O674       Zr708   2.510   1_565  S
O674        C685   1.301       .  A
O675       Zr681   2.512       .  S
O675        C686   1.304   1_455  A
O676       Zr681   2.467       .  S
O676        C687   1.295   1_556  A
O677       Zr711   2.442       .  S
O677        C687   1.297       .  A
O678       Zr710   2.382   1_565  S
O678        C686   1.278       .  A
O679       Zr681   2.352       .  S
O679        C685   1.266       .  A
O680       Zr681   2.406   1_655  S
O680        C684   1.285       .  A
Zr681       O682   2.411       .  S
Zr681       O683   2.362   1_455  S
Zr681       O691   2.348   1_556  S
Zr681       O689   2.351       .  S
O682       Zr708   2.305   1_565  S
O682       Zr711   2.356   1_556  S
O683       Zr709   2.375   1_556  S
O683       Zr710   2.361   1_565  S
C684       C1015   1.486   1_556  S
C685        C992   1.479       .  S
C686        C965   1.489   1_655  S
C687        C945   1.497       .  S
H688        O689   0.953       .  S
O689       Zr708   2.294   1_565  S
O689       Zr710   2.365   1_465  S
H690        O691   0.955       .  S
O691       Zr709   2.318   1_455  S
O691       Zr711   2.348       .  S
O692       Zr708   2.432       .  S
O692        C715   1.285       .  A
O693       Zr709   2.362   1_545  S
O693        C716   1.275       .  A
O694       Zr710   2.399   1_455  S
O694        C717   1.267       .  A
O695       Zr711   2.477       .  S
O695        C718   1.298   1_565  A
O696       Zr711   2.452       .  S
O696        C719   1.293   1_455  A
O697       Zr710   2.465       .  S
O697        C720   1.299       .  A
O698       Zr712   2.393   1_556  S
O698        C721   1.274       .  A
O699       Zr712   2.383       .  S
O699        C722   1.282       .  A
O700       Zr710   2.495       .  S
O700        C721   1.291   1_655  A
O701       Zr711   2.471   1_545  S
O701        C722   1.294       .  A
O702       Zr708   2.419       .  S
O702        C717   1.273       .  A
O703       Zr709   2.397   1_556  S
O703        C720   1.284   1_565  A
O704       Zr709   2.483       .  S
O704        C719   1.301       .  A
O705       Zr708   2.430       .  S
O705        C718   1.283   1_556  A
O706       Zr712   2.394       .  S
O706        C715   1.276   1_554  A
O707       Zr712   2.421   1_655  S
O707        C716   1.275       .  A
Zr708       O714   2.328       .  S
Zr708       O726   2.324   1_556  S
Zr709       O713   2.328   1_665  S
Zr709       O724   2.439   1_564  S
Zr710       O714   2.359   1_655  S
Zr710       O724   2.294       .  S
Zr711       O713   2.316   1_565  S
Zr711       O726   2.322   1_565  S
Zr712       O713   2.239       .  S
Zr712       O714   2.311   1_554  S
Zr712       O726   2.314       .  S
Zr712       O724   2.310   1_454  S
C715        C902   1.491       .  S
C716       C1005   1.454       .  S
C717        C952   1.463       .  S
C718        C912   1.502       .  S
C719        C935   1.496   1_565  S
C720        C985   1.471       .  S
C721        C975   1.492       .  S
C722        C922   1.486       .  S
H723        O724   0.964       .  S
H725        O726   0.964       .  S
O727       Zr763   2.481       .  S
O727        C738   1.296       .  A
O728       Zr762   2.384       .  S
O728        C739   1.275       .  A
O729       Zr735   2.421       .  S
O729        C740   1.274       .  A
O730       Zr735   2.522       .  S
O730        C741   1.302       .  A
O731       Zr765   2.342       .  S
O731        C741   1.267       .  A
O732       Zr764   2.451       .  S
O732        C740   1.280       .  A
O733       Zr735   2.411       .  S
O733        C739   1.279       .  A
O734       Zr735   2.485       .  S
O734        C738   1.298       .  A
Zr735       O736   2.298       .  S
Zr735       O745   2.269       .  S
Zr735       O743   2.370       .  S
Zr735       O737   2.266       .  S
O736       Zr762   2.357       .  S
O736       Zr765   2.296       .  S
O737       Zr763   2.197       .  S
O737       Zr764   2.296       .  S
C738        C895   1.502       .  S
C739        C872   1.471       .  S
C740        C882   1.467       .  S
C741        C865   1.510       .  S
H742        O743   0.962       .  S
O743       Zr762   2.308       .  S
O743       Zr764   2.407       .  S
H744        O745   0.952       .  S
O745       Zr763   2.322       .  S
O745       Zr765   2.279       .  S
O746       Zr762   2.360       .  S
O746        C769   1.278       .  A
O747       Zr763   2.474       .  S
O747        C770   1.303       .  A
O748       Zr764   2.393       .  S
O748        C771   1.279       .  A
O749       Zr765   2.432       .  S
O749        C772   1.294       .  A
O750       Zr765   2.451       .  S
O750        C773   1.296       .  A
O751       Zr764   2.383       .  S
O751        C774   1.267       .  A
O752       Zr766   2.347       .  S
O752        C775   1.271       .  A
O753       Zr766   2.435       .  S
O753        C776   1.290       .  A
O754       Zr764   2.557       .  S
O754        C775   1.313       .  A
O755       Zr765   2.302       .  S
O755        C776   1.269       .  A
O756       Zr762   2.466       .  S
O756        C771   1.293       .  A
O757       Zr763   2.536       .  S
O757        C774   1.301       .  A
O758       Zr763   2.388       .  S
O758        C773   1.279       .  A
O759       Zr762   2.441       .  S
O759        C772   1.289       .  A
O760       Zr766   2.510       .  S
O760        C769   1.308       .  A
O761       Zr766   2.406       .  S
O761        C770   1.284       .  A
Zr762       O768   2.370       .  S
Zr762       O780   2.327       .  S
Zr763       O767   2.349       .  S
Zr763       O778   2.330       .  S
Zr764       O768   2.306       .  S
Zr764       O778   2.317       .  S
Zr765       O767   2.313       .  S
Zr765       O780   2.278       .  S
Zr766       O767   2.347       .  S
Zr766       O768   2.367       .  S
Zr766       O780   2.282       .  S
Zr766       O778   2.422       .  S
C769        C855   1.471       .  S
C770        C835   1.461       .  S
C771        C785   1.499       .  S
C772        C805   1.483       .  S
C773        C815   1.479       .  S
C774        C795   1.526       .  S
C775        C825   1.485       .  S
C776        C845   1.443       .  S
H777        O778   0.960       .  S
H779        O780   0.959       .  S
C781        C782   1.393       .  A
C781        C786   1.417       .  A
C781       Br788   1.930       .  S
C782        C783   1.407       .  A
C783        C784   1.417       .  A
C783       Br790   1.914       .  S
C784        C785   1.430       .  A
C784       Br789   1.924       .  S
C785        C786   1.437       .  A
C786       Br787   1.911       .  S
C791        C792   1.396       .  A
C791        C796   1.425       .  A
C791       Br798   1.918       .  S
C792        C793   1.393       .  A
C793        C794   1.404       .  A
C793       Br800   1.930       .  S
C794        C795   1.428       .  A
C794       Br799   1.903       .  S
C795        C796   1.446       .  A
C796       Br797   1.913       .  S
C801        C802   1.406       .  A
C801        C806   1.411       .  A
C801       Br808   1.928       .  S
C802        C803   1.413       .  A
C803        C804   1.391       .  A
C803       Br810   1.943       .  S
C804        C805   1.400       .  A
C804       Br809   1.916       .  S
C805        C806   1.415       .  A
C806       Br807   1.916       .  S
C811        C812   1.402       .  A
C811        C816   1.392       .  A
C811       Br818   1.936       .  S
C812        C813   1.397       .  A
C813        C814   1.400       .  A
C813       Br820   1.933       .  S
C814        C815   1.425       .  A
C814       Br819   1.935       .  S
C815        C816   1.409       .  A
C816       Br817   1.918       .  S
C821        C822   1.408       .  A
C821        C826   1.425       .  A
C821       Br828   1.910       .  S
C822        C823   1.399       .  A
C823        C824   1.414       .  A
C823       Br830   1.907       .  S
C824        C825   1.428       .  A
C824       Br829   1.904       .  S
C825        C826   1.424       .  A
C826       Br827   1.895       .  S
C831        C832   1.408       .  A
C831        C836   1.389       .  A
C831       Br838   1.917       .  S
C832        C833   1.402       .  A
C833        C834   1.403       .  A
C833       Br840   1.914       .  S
C834        C835   1.401       .  A
C834       Br839   1.915       .  S
C835        C836   1.398       .  A
C836       Br837   1.910       .  S
C841        C842   1.396       .  A
C841        C846   1.381       .  A
C841       Br848   1.940       .  S
C842        C843   1.429       .  A
C843        C844   1.392       .  A
C843       Br850   1.937       .  S
C844        C845   1.393       .  A
C844       Br849   1.937       .  S
C845        C846   1.414       .  A
C846       Br847   1.906       .  S
C851        C852   1.407       .  A
C851        C856   1.419       .  A
C851       Br858   1.911       .  S
C852        C853   1.399       .  A
C853        C854   1.405       .  A
C853       Br860   1.921       .  S
C854        C855   1.416       .  A
C854       Br859   1.887       .  S
C855        C856   1.423       .  A
C856       Br857   1.925       .  S
C861        C862   1.403       .  A
C861        C866   1.393       .  A
C861       Br868   1.950       .  S
C862        C863   1.416       .  A
C863        C864   1.420       .  A
C863       Br870   1.928       .  S
C864        C865   1.412       .  A
C864       Br869   1.927       .  S
C865        C866   1.430       .  A
C866       Br867   1.945       .  S
C871        C872   1.427       .  A
C871        C876   1.392       .  A
C871       Br878   1.927       .  S
C872        C873   1.423       .  A
C873        C874   1.390       .  A
C873       Br880   1.945       .  S
C874        C875   1.396       .  A
C874       Br879   1.938       .  S
C875        C876   1.389       .  A
C876       Br877   1.934       .  S
C881        C882   1.420       .  A
C881        C886   1.415       .  A
C881       Br888   1.918       .  S
C882        C883   1.402       .  A
C883        C884   1.367       .  A
C883       Br890   1.924       .  S
C884        C885   1.393       .  A
C884       Br889   1.920       .  S
C885        C886   1.406       .  A
C886       Br887   1.922       .  S
C891        C892   1.412       .  A
C891        C896   1.417       .  A
C891       Br898   1.921       .  S
C892        C893   1.396       .  A
C893        C894   1.395       .  A
C893       Br900   1.942       .  S
C894        C895   1.420       .  A
C894       Br899   1.889       .  S
C895        C896   1.411       .  A
C896       Br897   1.916       .  S
C901        C902   1.421       .  A
C901        C906   1.385   1_556  A
C901       Br908   1.911       .  S
C902        C903   1.434   1_556  A
C903        C904   1.406       .  A
C903       Br910   1.933       .  S
C904        C905   1.394       .  A
C904       Br909   1.930       .  S
C905        C906   1.392       .  A
C906       Br907   1.946       .  S
C911        C912   1.435       .  A
C911        C916   1.411       .  A
C911       Br918   1.915   1_554  S
C912        C913   1.413       .  A
C913        C914   1.385       .  A
C913       Br920   1.898       .  S
C914        C915   1.396       .  A
C914       Br919   1.950       .  S
C915        C916   1.397       .  A
C916       Br917   1.932       .  S
C921        C922   1.405       .  A
C921        C926   1.416       .  A
C921       Br928   1.910       .  S
C922        C923   1.399       .  A
C923        C924   1.382       .  A
C923       Br930   1.898       .  S
C924        C925   1.400       .  A
C924       Br929   1.936       .  S
C925        C926   1.412       .  A
C926       Br927   1.922       .  S
C931        C932   1.424       .  A
C931        C936   1.427   1_545  A
C931       Br938   1.919   1_545  S
C932        C933   1.394       .  A
C933        C934   1.392       .  A
C933       Br940   1.916       .  S
C934        C935   1.404       .  A
C934       Br939   1.918       .  S
C935        C936   1.415   1_545  A
C936       Br937   1.909   1_655  S
C941        C942   1.426       .  A
C941        C946   1.433       .  A
C941       Br948   1.915       .  S
C942        C943   1.403       .  A
C943        C944   1.366       .  A
C943       Br950   1.933       .  S
C944        C945   1.402       .  A
C944       Br949   1.940       .  S
C945        C946   1.413       .  A
C946       Br947   1.907   1_554  S
C951        C952   1.421       .  A
C951        C956   1.414       .  A
C951       Br958   1.925       .  S
C952        C953   1.401       .  A
C953        C954   1.355       .  A
C953       Br960   1.906       .  S
C954        C955   1.398       .  A
C954       Br959   1.939       .  S
C955        C956   1.405       .  A
C956       Br957   1.921       .  S
C961        C962   1.400       .  A
C961        C966   1.418       .  A
C961       Br968   1.921       .  S
C962        C963   1.406   1_455  A
C963        C964   1.418       .  A
C963       Br970   1.912       .  S
C964        C965   1.421   1_655  A
C964       Br969   1.901       .  S
C965        C966   1.435       .  A
C966       Br967   1.903       .  S
C971        C972   1.413       .  A
C971        C976   1.409   1_455  A
C971       Br978   1.918   1_455  S
C972        C973   1.382       .  A
C973        C974   1.399       .  A
C973       Br980   1.929       .  S
C974        C975   1.428       .  A
C974       Br979   1.890       .  S
C975        C976   1.406   1_455  A
C976       Br977   1.904       .  S
C981        C982   1.402       .  A
C981        C986   1.412       .  A
C981       Br988   1.911   1_545  S
C982        C983   1.395       .  A
C983        C984   1.410       .  A
C983       Br990   1.921       .  S
C984        C985   1.426       .  A
C984       Br989   1.914       .  S
C985        C986   1.423       .  A
C986       Br987   1.924   1_545  S
C991        C992   1.426       .  A
C991        C996   1.416       .  A
C991       Br998   1.919       .  S
C992        C993   1.389       .  A
C993        C994   1.366   1_556  A
C993      Br1000   1.870       .  S
C994        C995   1.400   1_554  A
C994       Br999   1.930       .  S
C995        C996   1.409       .  A
C996       Br997   1.921       .  S
C1001      C1002   1.394       .  A
C1001      C1006   1.395       .  A
C1001     Br1008   1.930       .  S
C1002      C1003   1.408       .  A
C1003      C1004   1.380       .  A
C1003     Br1010   1.950       .  S
C1004      C1005   1.419       .  A
C1004     Br1009   1.948       .  S
C1005      C1006   1.423       .  A
C1006     Br1007   1.937       .  S
C1011      C1012   1.403       .  A
C1011      C1016   1.412       .  A
C1011     Br1018   1.923       .  S
C1012      C1013   1.407       .  A
C1013      C1014   1.419   1_554  A
C1013     Br1020   1.914   1_554  S
C1014      C1015   1.427   1_556  A
C1014     Br1019   1.925       .  S
C1015      C1016   1.429       .  A
C1016     Br1017   1.922       .  S
