geometry optimzed in LAMMPS
_audit_creation_date              2020-12-01 
_audit_creation_method            'lammps2cif' 
_symmetry_space_group_name_H-M    'P1' 
_symmetry_Int_Tables_number       1 
_symmetry_cell_setting            triclinic 
loop_ 
_symmetry_equiv_pos_as_xyz 
  x,y,z 
_cell_length_a                    41.34990307 
_cell_length_b                    41.24391937073536 
_cell_length_c                    38.43892199089609 
_cell_angle_alpha                 89.76780828813676 
_cell_angle_beta                  90.03596436740042 
_cell_angle_gamma                 90.07611199637523 
loop_ 
_atom_site_label 
_atom_site_type_symbol 
_atom_site_fract_x 
_atom_site_fract_y 
_atom_site_fract_z 
_atom_site_charge 
O1          O  0.30641285  0.01294857  0.65301384    -0.72000
O2          O  0.39509916  0.03025084  0.62840635    -0.72200
O3          O  0.34045131  0.01811683  0.59370894    -0.72100
O4          O  0.36196611  0.02826798  0.68783590    -0.72100
O5          O  0.37948909  0.97889755  0.69069957    -0.72100
O6          O  0.34818628  0.46861706  0.58683011    -0.72100
O7          O  0.40492196  0.47890731  0.61607837    -0.72000
O8          O  0.32165485  0.46739181  0.65151297    -0.72200
V9          V  0.35088311  0.02145463  0.64099864     1.35200
V10         V  0.36344896  0.47498853  0.63385866     1.35200
C11         C  0.29811793  0.98420204  0.66125226     0.77200
C12         C  0.41360654  0.00623545  0.62267803     0.77300
C13         C  0.34417747  0.49367824  0.56776026     0.77100
C14         C  0.37855112  0.00729392  0.70372392     0.77100
O15         O  0.45732261  0.13334321  0.86981703    -0.72000
O16         O  0.47111054  0.04266488  0.89184246    -0.72200
O17         O  0.48182739  0.09959662  0.92235617    -0.72100
O18         O  0.44199070  0.07522677  0.83929357    -0.72100
O19         O  0.48807208  0.07137157  0.81293049    -0.72100
O20         O  0.52807546  0.10606082  0.89658367    -0.72100
O21         O  0.51870321  0.04791372  0.86913580    -0.72000
O22         O  0.50088680  0.13158528  0.83882267    -0.72200
V23         V  0.46369059  0.08773422  0.88001345     1.35200
V24         V  0.50798068  0.08931510  0.85461350     1.35200
C25         C  0.47882199  0.14832038  0.85213961     0.77200
C26         C  0.49880750  0.03059356  0.88505824     0.77300
C27         C  0.51097359  0.10758702  0.92418885     0.77100
C28         C  0.45745140  0.06720497  0.81255676     0.77100
O29         O  0.15010014  0.43451553  0.64750359    -0.72000
O30         O  0.06024260  0.45106818  0.62731202    -0.72200
O31         O  0.11632806  0.45535841  0.59337983    -0.72100
O32         O  0.09278469  0.42595834  0.68173283    -0.72100
O33         O  0.09224910  0.47476562  0.70232150    -0.72100
O34         O  0.12652179  0.50359588  0.61281546    -0.72100
O35         O  0.06855243  0.50070580  0.64329253    -0.72000
O36         O  0.15193142  0.48126384  0.67310397    -0.72200
V37         V  0.10492799  0.44250130  0.63816641     1.35200
V38         V  0.10977474  0.48917428  0.65769186     1.35200
C39         C  0.16650333  0.45653646  0.66261992     0.77200
C40         C  0.04980278  0.47992483  0.63080224     0.77300
C41         C  0.12635064  0.48353247  0.58752123     0.77100
C42         C  0.08684267  0.44450736  0.70675554     0.77100
O43         O  0.03642242  0.30044226  0.87498423    -0.72000
O44         O  0.05490196  0.38946411  0.89713131    -0.72200
O45         O  0.04391438  0.33494853  0.93346379    -0.72100
O46         O  0.05092717  0.35529517  0.83881405    -0.72100
O47         O  0.00254344  0.37511989  0.83840529    -0.72100
O48         O  0.49207262  0.32913645  0.92550582    -0.72100
O49         O  0.00317795  0.39618697  0.90380965    -0.72000
O50         O  0.98672151  0.31461706  0.86532763    -0.72200
V51         V  0.04569146  0.34497006  0.88600199     1.35200
V52         V  0.99671829  0.35552179  0.88429655     1.35200
C53         C  0.00768418  0.29253402  0.86655046     0.77200
C54         C  0.03117590  0.40777325  0.90462796     0.77300
C55         C  0.01708006  0.33292343  0.94860107     0.77100
C56         C  0.03024184  0.37287414  0.82384875     0.77100
O57         O  0.04752788  0.14653705  0.15042566    -0.72000
O58         O  0.06414000  0.05867315  0.12301304    -0.72200
O59         O  0.05035615  0.11416116  0.08978872    -0.72100
O60         O  0.06434832  0.09031732  0.18301215    -0.72100
O61         O  0.01533443  0.07248891  0.18765863    -0.72100
O62         O  0.99852418  0.10825524  0.09582727    -0.72100
O63         O  0.01216882  0.05077512  0.12262134    -0.72000
O64         O  0.99787931  0.13266108  0.16127253    -0.72200
V65         V  0.05563405  0.10251476  0.13673544     1.35200
V66         V  0.00678743  0.09162236  0.14205422     1.35200
C67         C  0.01924228  0.15441979  0.16024524     0.77200
C68         C  0.04013374  0.03997201  0.11811022     0.77300
C69         C  0.02271089  0.11416359  0.07621838     0.77100
C70         C  0.04418416  0.07330456  0.19959901     0.77100
O71         O  0.17250503  0.01316863  0.36794857    -0.72000
O72         O  0.08486762  0.02815623  0.39782955    -0.72200
O73         O  0.14097390  0.01583731  0.42926360    -0.72100
O74         O  0.11552252  0.02888767  0.33631434    -0.72100
O75         O  0.10194384  0.97829917  0.33112251    -0.72100
O76         O  0.12927047  0.46742944  0.42034036    -0.72100
O77         O  0.07286188  0.47956306  0.39126286    -0.72000
O78         O  0.15525246  0.46333974  0.35585236    -0.72200
V79         V  0.12848948  0.02051993  0.38252247     1.35200
V80         V  0.11397483  0.47332387  0.37336689     1.35200
C81         C  0.18140516  0.98451727  0.36026813     0.77200
C82         C  0.06643894  0.00376375  0.40224823     0.77300
C83         C  0.13634082  0.49232520  0.43834598     0.77100
C84         C  0.10223791  0.00699169  0.31860079     0.77100
O85         O  0.32641847  0.42868124  0.36252749    -0.72000
O86         O  0.41567256  0.44216477  0.38954463    -0.72200
O87         O  0.35736698  0.45016152  0.41810385    -0.72100
O88         O  0.38597374  0.41605438  0.33396626    -0.72100
O89         O  0.39329159  0.46411297  0.31268241    -0.72100
O90         O  0.34908634  0.49722321  0.39420375    -0.72100
O91         O  0.40972750  0.49192106  0.37262403    -0.72000
O92         O  0.33009803  0.47287208  0.33238090    -0.72200
V93         V  0.37131076  0.43485016  0.37533648     1.35200
V94         V  0.37036152  0.48064476  0.35305053     1.35200
C95         C  0.31253262  0.45058848  0.34437684     0.77200
C96         C  0.42718294  0.47080555  0.38662018     0.77300
C97         C  0.34735218  0.47864447  0.42079042     0.77100
C98         C  0.39832282  0.43362823  0.31066608     0.77100
O99         O  0.46890523  0.29627961  0.15318081    -0.72000
O100        O  0.47807400  0.38831662  0.13386832    -0.72200
O101        O  0.48451413  0.33279486  0.09888426    -0.72100
O102        O  0.45748242  0.35278343  0.18859105    -0.72100
O103        O  0.50709802  0.36032068  0.20509142    -0.72100
O104        O  0.53323841  0.32281421  0.11696893    -0.72100
O105        O  0.52924242  0.38173275  0.14403305    -0.72000
O106        O  0.51502256  0.29910280  0.17947483    -0.72200
V107        V  0.47284873  0.34247740  0.14419992     1.35200
V108        V  0.52030175  0.34084588  0.16136196     1.35200
C109        C  0.49238946  0.28175198  0.16819115     0.77200
C110        C  0.50669726  0.40002063  0.13503341     0.77300
C111        C  0.51252421  0.32313719  0.09228786     0.77100
C112        C  0.47687006  0.36333362  0.21099879     0.77100
C113        C  0.46487102  0.41456089  0.24306556    -0.20500
C114        C  0.46255520  0.38051448  0.24126479    -0.07100
C115        C  0.43904970  0.36474383  0.26184084     0.09800
C116        C  0.41810176  0.38305652  0.28269116    -0.20600
C117        C  0.41965075  0.41723878  0.28426969    -0.07100
C118        C  0.44405108  0.43308758  0.26453114     0.13700
C119        C  0.44846877  0.46929610  0.26595187    -0.23900
H120        H  0.48201622  0.42691142  0.22633000     0.15000
H121        H  0.40015002  0.37020042  0.29798873     0.15100
C122        C  0.43586985  0.32827984  0.26171301    -0.23900
H123        H  0.46876103  0.47751085  0.24914572     0.05300
H124        H  0.45396392  0.47682772  0.29302604     0.08500
H125        H  0.42612510  0.48156116  0.25682611     0.08500
H126        H  0.45933411  0.31715177  0.26911928     0.08500
H127        H  0.42874032  0.31961364  0.23552764     0.08500
H128        H  0.41726146  0.31969498  0.28044583     0.05300
C129        C  0.47121369  0.51170469  0.38461246    -0.20500
C130        C  0.46040091  0.48104308  0.39674495    -0.07100
C131        C  0.98380424  0.47375677  0.42430220     0.13800
C132        C  0.01632713  0.48301987  0.42717223    -0.20600
C133        C  0.02873246  0.50987810  0.40863774    -0.07100
C134        C  0.50759256  0.01028073  0.41278607     0.13700
C135        C  0.51719620  0.04539492  0.40979454    -0.23900
H136        H  0.45691243  0.02108212  0.41258951     0.15000
H137        H  0.03297224  0.46711622  0.44081254     0.15100
C138        C  0.97252411  0.44328360  0.44230454    -0.23900
H139        H  0.49589640  0.06169788  0.41140553     0.05300
H140        H  0.03875867  0.05051110  0.35692445     0.08500
H141        H  0.03538361  0.07289644  0.39727149     0.08500
H142        H  0.46420342  0.41278011  0.41357924     0.08500
H143        H  0.45030678  0.43541951  0.45114284     0.08500
H144        H  0.99186328  0.43252120  0.45874804     0.05300
C145        C  0.26513514  0.48347876  0.32517545    -0.20500
C146        C  0.27650967  0.45452282  0.34093162    -0.07100
C147        C  0.25361897  0.43421405  0.35760245     0.13800
C148        C  0.22117790  0.44451240  0.36024378    -0.20600
C149        C  0.21076866  0.47486461  0.34733148    -0.07100
C150        C  0.23877388  0.99647369  0.33862679     0.13700
C151        C  0.22952190  0.02979445  0.32589833    -0.23900
H152        H  0.28862777  0.00338419  0.32536501     0.15000
H153        H  0.20403730  0.42923561  0.37398626     0.15100
C154        C  0.26298575  0.40201091  0.37320776    -0.23900
H155        H  0.25024660  0.04252384  0.31352471     0.05300
H156        H  0.22125953  0.04487167  0.34800268     0.08500
H157        H  0.20990986  0.02782594  0.30627904     0.08500
H158        H  0.27987514  0.40561424  0.39524378     0.08500
H159        H  0.27456644  0.38668936  0.35307439     0.08500
H160        H  0.24163793  0.38866111  0.38341734     0.05300
C161        C  0.05212344  0.48888610  0.13986521    -0.20500
C162        C  0.04296149  0.00492091  0.11439828    -0.07100
C163        C  0.52302615  0.97740009  0.09003979     0.13800
C164        C  0.50407233  0.44873662  0.09663871    -0.20600
C165        C  0.51568175  0.43386196  0.12694481    -0.07100
C166        C  0.04167053  0.45816143  0.15033883     0.13700
C167        C  0.05564938  0.44436951  0.18361742    -0.23900
H168        H  0.06923536  0.50196346  0.15597856     0.15000
H169        H  0.48688137  0.43590265  0.08043102     0.15100
C170        C  0.51411934  0.99230053  0.05546667    -0.23900
H171        H  0.07135249  0.46214371  0.19725046     0.05300
H172        H  0.07085847  0.42290410  0.17798932     0.08500
H173        H  0.03585818  0.43758762  0.20172011     0.08500
H174        H  0.53640029  0.99666851  0.04005775     0.08500
H175        H  0.50124150  0.01560029  0.05915148     0.08500
H176        H  0.49810249  0.97608984  0.04014713     0.05300
C177        C  0.48618612  0.19040505  0.14987772    -0.20500
C178        C  0.00992820  0.18844386  0.16792698    -0.07100
C179        C  0.02892996  0.20910843  0.18859578     0.13800
C180        C  0.01933804  0.24151612  0.19299851    -0.20600
C181        C  0.49738227  0.24562619  0.16902439    -0.07100
C182        C  0.47616473  0.22292572  0.15357938     0.13700
C183        C  0.44330581  0.23265333  0.14027169    -0.23900
H184        H  0.46994115  0.17327632  0.13757496     0.15000
H185        H  0.03467237  0.25719493  0.20841513     0.15100
C186        C  0.05927412  0.19711704  0.20613323    -0.23900
H187        H  0.42947468  0.21149210  0.13040429     0.05300
H188        H  0.44588171  0.25014609  0.11843170     0.08500
H189        H  0.42908684  0.24377160  0.16160664     0.08500
H190        H  0.07727155  0.18973087  0.18630050     0.08500
H191        H  0.05346385  0.17607397  0.22313617     0.08500
H192        H  0.07058467  0.21615747  0.22249195     0.05300
C193        C  0.05286615  0.01907440  0.28230843    -0.20500
C194        C  0.08685180  0.01673146  0.28489240    -0.07100
C195        C  0.10574390  0.03133489  0.25864939     0.13800
C196        C  0.09072668  0.04888228  0.23170320    -0.20600
C197        C  0.05681578  0.05303621  0.22969389    -0.07100
C198        C  0.03762276  0.03673005  0.25493281     0.13700
C199        C  0.00131771  0.03861325  0.25390960    -0.23900
H200        H  0.03821681  0.00844061  0.30276393     0.15000
H201        H  0.10608120  0.05982846  0.21207997     0.15100
C202        C  0.14214106  0.02880091  0.25928878    -0.23900
H203        H  0.99016225  0.02529650  0.27603991     0.05300
H204        H  0.99221766  0.02763621  0.22945992     0.08500
H205        H  0.99352768  0.06432309  0.25533313     0.08500
H206        H  0.14935482  0.00287707  0.25950537     0.08500
H207        H  0.15196489  0.04084579  0.28278896     0.08500
H208        H  0.15334656  0.04053513  0.23619279     0.05300
C209        C  0.04349303  0.34028573  0.00584463    -0.20500
C210        C  0.01731357  0.32728949  0.98681346    -0.07100
C211        C  0.49124375  0.30387346  0.99995607     0.13800
C212        C  0.49256779  0.30180269  0.03643089    -0.20600
C213        C  0.51886186  0.31445070  0.05559325    -0.07100
C214        C  0.04448978  0.33912422  0.04233877     0.13700
C215        C  0.07137417  0.35627779  0.06133738    -0.23900
H216        H  0.06252812  0.35317037  0.99217129     0.15000
H217        H  0.47172878  0.29240335  0.05034376     0.15100
C218        C  0.46178914  0.29139508  0.98116887    -0.23900
H219        H  0.08916016  0.36720661  0.04308013     0.05300
H220        H  0.08442900  0.33875339  0.07823019     0.08500
H221        H  0.06128140  0.37605625  0.07755342     0.08500
H222        H  0.46909289  0.27309746  0.96157428     0.08500
H223        H  0.44902232  0.31171497  0.96809962     0.08500
H224        H  0.44439841  0.27969747  0.99932525     0.05300
C225        C  0.14995728  0.46440167  0.53218621    -0.20500
C226        C  0.13659003  0.49049167  0.55104289    -0.07100
C227        C  0.12718793  0.51855841  0.53267357     0.13800
C228        C  0.12948642  0.51896428  0.49604532    -0.20600
C229        C  0.13992616  0.49158320  0.47704172    -0.07100
C230        C  0.15094908  0.95975039  0.50201403     0.13700
C231        C  0.16351205  0.92978599  0.48432933    -0.23900
H232        H  0.15411601  0.93828059  0.55304147     0.15000
H233        H  0.12101033  0.54018180  0.48206487     0.15100
C234        C  0.11270838  0.54712929  0.55124757    -0.23900
H235        H  0.17118575  0.91106777  0.50347136     0.05300
H236        H  0.18477240  0.93611234  0.46800392     0.08500
H237        H  0.14434351  0.91894912  0.46784373     0.08500
H238        H  0.13040137  0.55689319  0.57025673     0.08500
H239        H  0.09039256  0.53954041  0.56514921     0.08500
H240        H  0.10620752  0.56693851  0.53288400     0.05300
C241        C  0.04467999  0.44025918  0.75467970    -0.20500
C242        C  0.07357525  0.42917423  0.73925870    -0.07100
C243        C  0.08667058  0.39941088  0.75120888     0.13800
C244        C  0.07034546  0.38120010  0.77662077    -0.20600
C245        C  0.04138060  0.39170983  0.79219675    -0.07100
C246        C  0.02862038  0.42208337  0.78117197     0.13700
C247        C  0.99843959  0.43563522  0.79736392    -0.23900
H248        H  0.03417960  0.46273035  0.74538362     0.15000
H249        H  0.08098553  0.35845884  0.78492085     0.15100
C250        C  0.11868070  0.38679315  0.73795212    -0.23900
H251        H  0.99216238  0.45973366  0.78632603     0.05300
H252        H  0.00194383  0.43859343  0.82577839     0.08500
H253        H  0.97783533  0.41894943  0.79263385     0.08500
H254        H  0.13751650  0.40585949  0.74051463     0.08500
H255        H  0.11665103  0.37927005  0.71039002     0.08500
H256        H  0.12697860  0.36523662  0.75287669     0.05300
C257        C  0.03723219  0.10519594  0.97859102    -0.20500
C258        C  0.52328304  0.11543101  0.95933207    -0.07100
C259        C  0.50437446  0.13460832  0.98223228     0.13800
C260        C  0.50776523  0.13089174  0.01845946    -0.20600
C261        C  0.02003674  0.11856353  0.03783858    -0.07100
C262        C  0.04187660  0.10281795  0.01476168     0.13700
C263        C  0.06897117  0.08154825  0.02789380    -0.23900
H264        H  0.05234891  0.09120913  0.96120126     0.15000
H265        H  0.49248052  0.14463583  0.03588559     0.15100
C266        C  0.47994676  0.15857145  0.96848683    -0.23900
H267        H  0.08195475  0.06935970  0.00631298     0.05300
H268        H  0.05915003  0.06240843  0.04529401     0.08500
H269        H  0.08698649  0.09636416  0.04217190     0.08500
H270        H  0.45985275  0.14580764  0.95525247     0.08500
H271        H  0.49186061  0.17546762  0.94991442     0.08500
H272        H  0.46919802  0.17322227  0.98971715     0.05300
C273        C  0.04649734  0.45894732  0.87908186    -0.20500
C274        C  0.03351837  0.44303986  0.90792924    -0.07100
C275        C  0.50950460  0.45279688  0.92711250     0.13800
C276        C  0.49742613  0.48381118  0.91880209    -0.20600
C277        C  0.50938789  0.99754619  0.89525110    -0.07100
C278        C  0.02360251  0.98916298  0.87315172     0.13700
C279        C  0.03254821  0.00214403  0.83754819    -0.23900
H280        H  0.06263664  0.44577382  0.86196082     0.15000
H281        H  0.48264192  0.49675816  0.93740695     0.15100
C282        C  0.50083794  0.43740454  0.96150780    -0.23900
H283        H  0.04705172  0.98446396  0.82242227     0.05300
H284        H  0.04744638  0.02439878  0.83981700     0.08500
H285        H  0.01029547  0.00731898  0.82237698     0.08500
H286        H  0.52327673  0.43147040  0.97606675     0.08500
H287        H  0.48668347  0.41487165  0.95745866     0.08500
H288        H  0.48605676  0.45391826  0.97777401     0.05300
C289        C  0.96655599  0.24827282  0.87189275    -0.20500
C290        C  0.99750390  0.25831624  0.86047598    -0.07100
C291        C  0.01766901  0.23550574  0.84425028     0.13800
C292        C  0.50988094  0.19680733  0.83223813    -0.20600
C293        C  0.48230413  0.18453593  0.84987006    -0.07100
C294        C  0.46307304  0.20664685  0.86882351     0.13700
C295        C  0.43259512  0.19619448  0.88714301    -0.23900
H296        H  0.95080028  0.26584397  0.88408375     0.15000
H297        H  0.52473117  0.18061820  0.81696212     0.15100
C298        C  0.05052649  0.24473387  0.83033940    -0.23900
H299        H  0.42004272  0.21699095  0.89945153     0.05300
H300        H  0.43834869  0.17853911  0.90802155     0.08500
H301        H  0.41569263  0.18504249  0.86817979     0.08500
H302        H  0.06661438  0.25210987  0.85202726     0.08500
H303        H  0.04812466  0.26502926  0.81144975     0.08500
H304        H  0.06238661  0.22420412  0.81679433     0.05300
C305        C  0.32041946  0.47020805  0.51352188    -0.20500
C306        C  0.34103752  0.49268676  0.52932324    -0.07100
C307        C  0.35678584  0.01236537  0.51966221     0.13800
C308        C  0.35639505  0.51276454  0.47166412    -0.20600
C309        C  0.33754989  0.48890382  0.45590306    -0.07100
C310        C  0.31832399  0.46816147  0.47705645     0.13700
C311        C  0.29606891  0.44328460  0.46115540    -0.23900
H312        H  0.30648064  0.45377453  0.52964194     0.15000
H313        H  0.37233276  0.02458722  0.46770016     0.15100
C314        C  0.37817039  0.03812280  0.53543261    -0.23900
H315        H  0.28135576  0.43066724  0.48124850     0.05300
H316        H  0.31014654  0.42455692  0.44720971     0.08500
H317        H  0.27924902  0.45537002  0.44269235     0.08500
H318        H  0.39607535  0.02671209  0.55314299     0.08500
H319        H  0.36333087  0.05593986  0.54989068     0.08500
H320        H  0.39184178  0.05182980  0.51530698     0.05300
C321        C  0.00566423  0.51966178  0.63780503    -0.20500
C322        C  0.01666790  0.49078873  0.62203640    -0.07100
C323        C  0.49717633  0.46990757  0.59352488     0.13800
C324        C  0.46549254  0.48075939  0.58744666    -0.20600
C325        C  0.45232900  0.50712169  0.60594599    -0.07100
C326        C  0.46864273  0.02645349  0.63745478     0.13700
C327        C  0.95709686  0.06128039  0.66064106    -0.23900
H328        H  0.01699769  0.03622057  0.66160589     0.15000
H329        H  0.44985914  0.46674662  0.57052442     0.15100
C330        C  0.50953324  0.44078825  0.57413330    -0.23900
H331        H  0.97643465  0.07231138  0.67681518     0.05300
H332        H  0.43696225  0.04613869  0.67665416     0.08500
H333        H  0.44608753  0.07330684  0.64084219     0.08500
H334        H  0.01259475  0.42506178  0.59681968     0.08500
H335        H  0.02928314  0.45120686  0.56318306     0.08500
H336        H  0.49154535  0.43176623  0.55498641     0.05300
C337        C  0.21778853  0.45460270  0.63062402    -0.20500
C338        C  0.20228641  0.45761319  0.66284938    -0.07100
C339        C  0.21977803  0.47077713  0.69129740     0.13800
C340        C  0.24820985  0.97780264  0.69772897    -0.20600
C341        C  0.26641092  0.48043192  0.65353466    -0.07100
C342        C  0.24948603  0.46594409  0.62561891     0.13700
C343        C  0.26470161  0.46292373  0.59020463    -0.23900
H344        H  0.20428721  0.44535974  0.60859010     0.15000
H345        H  0.26147506  0.98816051  0.71933134     0.15100
C346        C  0.19968844  0.97289868  0.73698745    -0.23900
H347        H  0.24792627  0.45183015  0.57104789     0.05300
H348        H  0.28647126  0.44731990  0.59198144     0.08500
H349        H  0.27167277  0.48729479  0.58036341     0.08500
H350        H  0.19622627  0.44881686  0.73539856     0.08500
H351        H  0.17937147  0.99033783  0.73520847     0.08500
H352        H  0.21701204  0.98226433  0.75663581     0.05300
C353        C  0.44939630  0.02374963  0.76691797    -0.20500
C354        C  0.43870682  0.05241083  0.78310215    -0.07100
C355        C  0.40744351  0.06414781  0.77451072     0.13800
C356        C  0.38791110  0.04708695  0.75090939    -0.20600
C357        C  0.39830343  0.01858021  0.73437478    -0.07100
C358        C  0.42975338  0.00684802  0.74256802     0.13700
C359        C  0.44624270  0.48300346  0.71362481    -0.23900
H360        H  0.47299935  0.01424793  0.77374183     0.15000
H361        H  0.36429625  0.05683158  0.74452034     0.15100
C362        C  0.39462805  0.09556604  0.78912620    -0.23900
H363        H  0.47158045  0.47896793  0.72212435     0.05300
H364        H  0.44663324  0.48817008  0.68529929     0.08500
H365        H  0.43232657  0.46040726  0.71849137     0.08500
H366        H  0.41237038  0.11535871  0.78452531     0.08500
H367        H  0.38980212  0.09308117  0.81737565     0.08500
H368        H  0.37148531  0.10282453  0.77666386     0.05300
O369        O  0.31005213  0.51778984  0.64061651    -0.72000
O370        O  0.39969641  0.53125790  0.61729204    -0.72200
O371        O  0.34497531  0.52094372  0.58203210    -0.72100
O372        O  0.36546985  0.53162798  0.67617074    -0.72100
O373        O  0.38122726  0.48167958  0.68012841    -0.72100
O374        O  0.34593447  0.96592069  0.59776481    -0.72100
O375        O  0.40247755  0.97817050  0.62644685    -0.72000
O376        O  0.31974559  0.96277277  0.66259107    -0.72200
V377        V  0.35496851  0.52449330  0.62927694     1.35200
V378        V  0.36128893  0.97225267  0.64465546     1.35200
C379        C  0.30082105  0.48946626  0.64938965     0.77200
C380        C  0.41729067  0.50640635  0.61223773     0.77300
C381        C  0.34100384  0.99100164  0.57902421     0.77100
C382        C  0.38062572  0.51019521  0.69292281     0.77100
O383        O  0.45185452  0.63456451  0.86465894    -0.72000
O384        O  0.46594549  0.54352805  0.88566285    -0.72200
O385        O  0.47550722  0.60042891  0.91759021    -0.72100
O386        O  0.43790233  0.57667293  0.83295516    -0.72100
O387        O  0.48466750  0.57341529  0.80796285    -0.72100
O388        O  0.52219969  0.60779420  0.89299677    -0.72100
O389        O  0.51421247  0.54972499  0.86470166    -0.72000
O390        O  0.49607639  0.63342914  0.83472977    -0.72200
V391        V  0.45845735  0.58884449  0.87450594     1.35200
V392        V  0.50333310  0.59116599  0.85037749     1.35200
C393        C  0.47344418  0.64984405  0.84737856     0.77200
C394        C  0.49378388  0.53174887  0.87894930     0.77300
C395        C  0.50451106  0.60884669  0.92018567     0.77100
C396        C  0.45410263  0.56905250  0.80657518     0.77100
O397        O  0.14452645  0.93491141  0.65879388    -0.72000
O398        O  0.05681302  0.95570553  0.63244493    -0.72200
O399        O  0.11480438  0.95432846  0.60122698    -0.72100
O400        O  0.08488098  0.93248153  0.69039244    -0.72100
O401        O  0.08942905  0.98230098  0.70776651    -0.72100
O402        O  0.12478878  0.00376482  0.61696340    -0.72100
O403        O  0.06637415  0.00545496  0.64728004    -0.72000
O404        O  0.14937385  0.98391528  0.67848539    -0.72200
V405        V  0.10040201  0.94522786  0.64631773     1.35200
V406        V  0.10743042  0.99286314  0.66245243     1.35200
C407        C  0.16226216  0.95714136  0.67169034     0.77200
C408        C  0.04714565  0.98492722  0.63496795     0.77300
C409        C  0.12511086  0.98203232  0.59338638     0.77100
C410        C  0.08028583  0.95324050  0.71372127     0.77100
O411        O  0.03848935  0.80327647  0.87454713    -0.72000
O412        O  0.05161166  0.89189815  0.90253813    -0.72200
O413        O  0.04419711  0.83470649  0.93513720    -0.72100
O414        O  0.04974515  0.86116649  0.84208815    -0.72100
O415        O  0.00007302  0.87764612  0.84301249    -0.72100
O416        O  0.48563806  0.82829626  0.92764330    -0.72100
O417        O  0.99961262  0.89512415  0.90959208    -0.72000
O418        O  0.98797818  0.81501892  0.86617774    -0.72200
V419        V  0.04516118  0.84760959  0.88848617     1.35200
V420        V  0.99562186  0.85527824  0.88760913     1.35200
C421        C  0.01012513  0.79412450  0.86603795     0.77200
C422        C  0.02678898  0.90842969  0.91078151     0.77300
C423        C  0.01766340  0.83066083  0.95042637     0.77100
C424        C  0.02801076  0.87859602  0.82878283     0.77100
O425        O  0.05138816  0.64680280  0.14535013    -0.72000
O426        O  0.06281553  0.55723810  0.11975171    -0.72200
O427        O  0.05454746  0.61325268  0.08505700    -0.72100
O428        O  0.06330198  0.58996452  0.17904982    -0.72100
O429        O  0.01307832  0.57520903  0.18162330    -0.72100
O430        O  0.00222430  0.61126174  0.08873971    -0.72100
O431        O  0.01052336  0.55323537  0.11675460    -0.72000
O432        O  0.00065635  0.63589771  0.15423604    -0.72200
V433        V  0.05708732  0.60199237  0.13236857     1.35200
V434        V  0.00746641  0.59447694  0.13554622     1.35200
C435        C  0.02326952  0.65627890  0.15422216     0.77200
C436        C  0.03766675  0.54017130  0.11412303     0.77300
C437        C  0.02755825  0.61505261  0.07018646     0.77100
C438        C  0.04152118  0.57430650  0.19466210     0.77100
O439        O  0.16840788  0.51398733  0.36122912    -0.72000
O440        O  0.08127901  0.53151928  0.39155049    -0.72200
O441        O  0.13748845  0.51928424  0.42295306    -0.72100
O442        O  0.11110101  0.52959097  0.32964280    -0.72100
O443        O  0.09645766  0.47909967  0.32693768    -0.72100
O444        O  0.13297078  0.96406140  0.42510784    -0.72100
O445        O  0.07701668  0.97617363  0.39498390    -0.72000
O446        O  0.16033717  0.96249149  0.36088037    -0.72200
V447        V  0.12462707  0.52262144  0.37604651     1.35200
V448        V  0.11858648  0.97120706  0.37783412     1.35200
C449        C  0.17669878  0.48494471  0.35436227     0.77200
C450        C  0.06263292  0.50754942  0.39736111     0.77300
C451        C  0.13953775  0.98858037  0.44395765     0.77100
C452        C  0.09674087  0.50735551  0.31339435     0.77100
O453        O  0.32998143  0.92714561  0.36910414    -0.72000
O454        O  0.41714609  0.93484571  0.40338594    -0.72200
O455        O  0.35770463  0.94505792  0.42797481    -0.72100
O456        O  0.39072253  0.91299941  0.34423077    -0.72100
O457        O  0.39921948  0.96156977  0.32494499    -0.72100
O458        O  0.35553707  0.99391050  0.40694222    -0.72100
O459        O  0.41631971  0.98509174  0.38680693    -0.72000
O460        O  0.33614638  0.97365087  0.34378995    -0.72200
V461        V  0.37388377  0.93075251  0.38546844     1.35200
V462        V  0.37657141  0.97759399  0.36565790     1.35200
C463        C  0.31752421  0.95093690  0.35270330     0.77200
C464        C  0.43105086  0.96237580  0.40164173     0.77300
C465        C  0.35047864  0.97428134  0.43207870     0.77100
C466        C  0.40392166  0.93112036  0.32189776     0.77100
O467        O  0.46337279  0.79845891  0.15754683    -0.72000
O468        O  0.47790107  0.88960815  0.13861550    -0.72200
O469        O  0.47946577  0.83407495  0.10273177    -0.72100
O470        O  0.45706705  0.85526256  0.19400558    -0.72100
O471        O  0.50769322  0.85858029  0.20853570    -0.72100
O472        O  0.52809274  0.82103018  0.11853913    -0.72100
O473        O  0.52890712  0.87982835  0.14694319    -0.72000
O474        O  0.51076016  0.79763002  0.18143766    -0.72200
V475        V  0.47010539  0.84422994  0.14876406     1.35200
V476        V  0.51798871  0.83921455  0.16383209     1.35200
C477        C  0.48646792  0.78219132  0.17105952     0.77200
C478        C  0.50717232  0.89949732  0.13899921     0.77300
C479        C  0.50652909  0.82264776  0.09473714     0.77100
C480        C  0.47802526  0.86388517  0.21575498     0.77100
C481        C  0.46213046  0.91539352  0.24471882    -0.20500
C482        C  0.46635668  0.88155101  0.24705709    -0.07100
C483        C  0.45079478  0.86474986  0.27424695     0.09800
C484        C  0.43104108  0.88174380  0.29777939    -0.20600
C485        C  0.42566588  0.91557646  0.29505025    -0.07100
C486        C  0.44247436  0.93265859  0.26849412     0.13700
C487        C  0.43943515  0.96883252  0.26440147    -0.23900
H488        H  0.47289668  0.92822812  0.22298702     0.15000
H489        H  0.41927646  0.86804260  0.31827345     0.15100
C490        C  0.45432648  0.82852334  0.27781595    -0.23900
H491        H  0.45387661  0.97802509  0.24208679     0.05300
H492        H  0.44839025  0.98104223  0.28823048     0.08500
H493        H  0.41377455  0.97543034  0.25973984     0.08500
H494        H  0.48027184  0.82226777  0.28101155     0.08500
H495        H  0.44475879  0.81634226  0.25424363     0.08500
H496        H  0.44094705  0.81895488  0.30071225     0.05300
C497        C  0.47470492  0.00187092  0.41422741    -0.20500
C498        C  0.46444548  0.96908837  0.41366443    -0.07100
C499        C  0.98765105  0.96915407  0.42909591     0.13800
C500        C  0.02025777  0.97829855  0.43156655    -0.20600
C501        C  0.03245269  0.00537309  0.41321430    -0.07100
C502        C  0.50350049  0.52154740  0.38766252     0.13700
C503        C  0.51382685  0.55374058  0.37257231    -0.23900
H504        H  0.45478350  0.52761297  0.37076614     0.15000
H505        H  0.03703777  0.96229771  0.44486470     0.15100
C506        C  0.97640198  0.93863410  0.44703332    -0.23900
H507        H  0.49306529  0.56732832  0.36141925     0.05300
H508        H  0.03591264  0.55685872  0.35408183     0.08500
H509        H  0.03090318  0.57781524  0.39495967     0.08500
H510        H  0.46739551  0.90136358  0.39548396     0.08500
H511        H  0.46142100  0.90496532  0.44217945     0.08500
H512        H  0.99586760  0.92769652  0.46316733     0.05300
C513        C  0.27115915  0.98631992  0.33573837    -0.20500
C514        C  0.28177918  0.95573624  0.34810186    -0.07100
C515        C  0.25820517  0.93376574  0.36076407     0.13800
C516        C  0.22566329  0.94367594  0.36273519    -0.20600
C517        C  0.21573412  0.97525362  0.35330744    -0.07100
C518        C  0.23295207  0.49405856  0.32858460     0.13700
C519        C  0.22290312  0.52559847  0.31191800    -0.23900
H520        H  0.28193878  0.49914114  0.31149414     0.15000
H521        H  0.20802798  0.92696476  0.37348140     0.15100
C522        C  0.26692356  0.90018757  0.37317912    -0.23900
H523        H  0.24296566  0.53681255  0.29688109     0.05300
H524        H  0.21543368  0.54314087  0.33217149     0.08500
H525        H  0.20249161  0.52126775  0.29375785     0.08500
H526        H  0.28227019  0.90162473  0.39680825     0.08500
H527        H  0.27992489  0.88703554  0.35228816     0.08500
H528        H  0.24513838  0.88578135  0.38013966     0.05300
C529        C  0.05604315  0.98931409  0.14340744    -0.20500
C530        C  0.03782897  0.50475863  0.11171726    -0.07100
C531        C  0.51466823  0.47993921  0.08703193     0.13800
C532        C  0.51007543  0.94705713  0.09936382    -0.20600
C533        C  0.51774839  0.93282134  0.13141377    -0.07100
C534        C  0.04555292  0.95842211  0.15315863     0.13700
C535        C  0.05704776  0.94501701  0.18768841    -0.23900
H536        H  0.07153673  0.00287921  0.16091160     0.15000
H537        H  0.49418687  0.93435324  0.08157439     0.15100
C538        C  0.50152795  0.49534053  0.05430916    -0.23900
H539        H  0.07175303  0.96294810  0.20232726     0.05300
H540        H  0.07252085  0.92342252  0.18367237     0.08500
H541        H  0.03592295  0.93850567  0.20414090     0.08500
H542        H  0.52180301  0.50121027  0.03645656     0.08500
H543        H  0.48802098  0.51782588  0.06032472     0.08500
H544        H  0.48474117  0.47879096  0.04043524     0.05300
C545        C  0.48459952  0.69476981  0.13965796    -0.20500
C546        C  0.01507132  0.69049005  0.16205727    -0.07100
C547        C  0.03091047  0.70880746  0.18773978     0.13800
C548        C  0.02060685  0.74076818  0.19419787    -0.20600
C549        C  0.48919456  0.74603993  0.17058057    -0.07100
C550        C  0.47385583  0.72673471  0.14504480     0.13700
C551        C  0.44740334  0.73991111  0.12204510    -0.23900
H552        H  0.47293588  0.68006317  0.11997580     0.15000
H553        H  0.03359856  0.75496106  0.21332103     0.15100
C554        C  0.05837680  0.69462258  0.20852057    -0.23900
H555        H  0.43798207  0.72123367  0.10392003     0.05300
H556        H  0.45683592  0.76027597  0.10603279     0.08500
H557        H  0.42691779  0.74838371  0.13827794     0.08500
H558        H  0.07861754  0.68818892  0.19091083     0.08500
H559        H  0.05000725  0.67250268  0.22242908     0.08500
H560        H  0.06768919  0.71199874  0.22813558     0.05300
C561        C  0.04736364  0.52666948  0.28152560    -0.20500
C562        C  0.07984704  0.51612950  0.28030164    -0.07100
C563        C  0.09773072  0.52216657  0.24983610     0.13800
C564        C  0.08370417  0.53995876  0.22243577    -0.20600
C565        C  0.05204453  0.55275632  0.22436941    -0.07100
C566        C  0.03324503  0.54487877  0.25396558     0.13700
C567        C  0.99916887  0.55708887  0.25747849    -0.23900
H568        H  0.03351213  0.52214854  0.30495230     0.15000
H569        H  0.09815670  0.54462848  0.19943531     0.15100
C570        C  0.13213690  0.51059064  0.24666456    -0.23900
H571        H  0.98821203  0.54957903  0.28264011     0.05300
H572        H  0.98400983  0.54718645  0.23617494     0.08500
H573        H  0.99899873  0.58398502  0.25612526     0.08500
H574        H  0.13290564  0.48382326  0.24975992     0.08500
H575        H  0.14728694  0.52193340  0.26711722     0.08500
H576        H  0.14274161  0.51688085  0.22096440     0.05300
C577        C  0.04626365  0.83426391  0.00704166    -0.20500
C578        C  0.01859422  0.82383156  0.98850525    -0.07100
C579        C  0.48179261  0.80532617  0.00219564     0.13800
C580        C  0.48269513  0.80481410  0.03877818    -0.20600
C581        C  0.51085826  0.81310110  0.05765670    -0.07100
C582        C  0.04754436  0.83373460  0.04354238     0.13700
C583        C  0.07629240  0.84832080  0.06184823    -0.23900
H584        H  0.06635468  0.84501338  0.99304326     0.15000
H585        H  0.46047938  0.79994644  0.05282545     0.15100
C586        C  0.45048880  0.79753896  0.98393442    -0.23900
H587        H  0.09497273  0.85683993  0.04316754     0.05300
H588        H  0.08756086  0.82987313  0.07910230     0.08500
H589        H  0.06854402  0.86945507  0.07758034     0.08500
H590        H  0.45439684  0.77763304  0.96502977     0.08500
H591        H  0.44121481  0.81933364  0.97020954     0.08500
H592        H  0.43150296  0.78955406  0.00253234     0.05300
C593        C  0.14812153  0.96007227  0.53855631    -0.20500
C594        C  0.13580018  0.98714319  0.55667559    -0.07100
C595        C  0.12872016  0.01555397  0.53769542     0.13800
C596        C  0.13217541  0.01546678  0.50125531    -0.20600
C597        C  0.14183482  0.98748651  0.48281008    -0.07100
C598        C  0.15118969  0.46429947  0.49561543     0.13700
C599        C  0.16412853  0.43484777  0.47722392    -0.23900
H600        H  0.15761593  0.44286670  0.54619261     0.15000
H601        H  0.12533918  0.03706849  0.48690380     0.15100
C602        C  0.11549532  0.04528059  0.55529587    -0.23900
H603        H  0.17356170  0.41652222  0.49587961     0.05300
H604        H  0.18422702  0.44202150  0.45964402     0.08500
H605        H  0.14462238  0.42310868  0.46194536     0.08500
H606        H  0.13323646  0.05433355  0.57465364     0.08500
H607        H  0.09237726  0.03930552  0.56855976     0.08500
H608        H  0.11068378  0.06515866  0.53641829     0.05300
C609        C  0.03191924  0.93255871  0.74626213    -0.20500
C610        C  0.06477581  0.94203030  0.74669107    -0.07100
C611        C  0.08389822  0.93288373  0.77534351     0.13800
C612        C  0.07053928  0.91318859  0.80164762    -0.20600
C613        C  0.03819259  0.90196597  0.80054125    -0.07100
C614        C  0.01826382  0.91317196  0.77312568     0.13700
C615        C  0.98323589  0.90354875  0.77120272    -0.23900
H616        H  0.01722825  0.93917144  0.72397892     0.15000
H617        H  0.08596059  0.90590950  0.82309898     0.15100
C618        C  0.11901710  0.94250169  0.77722608    -0.23900
H619        H  0.97140138  0.91338875  0.74747335     0.05300
H620        H  0.97016018  0.91308243  0.79419997     0.08500
H621        H  0.98111391  0.87671984  0.77065830     0.08500
H622        H  0.12112017  0.96934199  0.77678937     0.08500
H623        H  0.13225679  0.93236088  0.75464073     0.08500
H624        H  0.13074373  0.93341108  0.80136141     0.05300
C625        C  0.04463103  0.60117501  0.97371545    -0.20500
C626        C  0.51617050  0.61660668  0.95560451    -0.07100
C627        C  0.49749879  0.63659062  0.97790370     0.13800
C628        C  0.50049095  0.63339238  0.01429244    -0.20600
C629        C  0.02699929  0.61867431  0.03157727    -0.07100
C630        C  0.04686596  0.59882179  0.01017251     0.13700
C631        C  0.06898589  0.57339530  0.02543675    -0.23900
H632        H  0.05769302  0.58413906  0.95756854     0.15000
H633        H  0.48554316  0.64792815  0.03132065     0.15100
C634        C  0.47409467  0.66113256  0.96325657    -0.23900
H635        H  0.08072006  0.55856366  0.00496842     0.05300
H636        H  0.05498947  0.55676693  0.04244707     0.08500
H637        H  0.08851980  0.58509191  0.04070360     0.08500
H638        H  0.45423461  0.64890311  0.94903954     0.08500
H639        H  0.48704191  0.67776903  0.94522217     0.08500
H640        H  0.46296532  0.67598292  0.98409763     0.05300
C641        C  0.03706092  0.95962559  0.88337487    -0.20500
C642        C  0.02667510  0.94380572  0.91345368    -0.07100
C643        C  0.50433303  0.95068868  0.93384939     0.13800
C644        C  0.49545001  0.98238592  0.92430759    -0.20600
C645        C  0.50418281  0.49815239  0.88648531    -0.07100
C646        C  0.03516670  0.48948251  0.86890250     0.13700
C647        C  0.04734829  0.50304914  0.83470648    -0.23900
H648        H  0.05302686  0.94702288  0.86564159     0.15000
H649        H  0.47711943  0.99505189  0.93910694     0.15100
C650        C  0.48848322  0.93488580  0.96493024    -0.23900
H651        H  0.06276842  0.48541980  0.82058759     0.05300
H652        H  0.06242081  0.52489715  0.83919982     0.08500
H653        H  0.02660211  0.50907341  0.81750310     0.08500
H654        H  0.50735753  0.92697153  0.98367451     0.08500
H655        H  0.47389461  0.91359125  0.95702502     0.08500
H656        H  0.47207854  0.95193192  0.97856905     0.05300
C657        C  0.97066664  0.74830368  0.86921371    -0.20500
C658        C  0.00147868  0.75964924  0.85880230    -0.07100
C659        C  0.02285145  0.73778129  0.84283253     0.13800
C660        C  0.50488274  0.69865503  0.82929185    -0.20600
C661        C  0.47633347  0.68612055  0.84473879    -0.07100
C662        C  0.45514302  0.70821691  0.86107065     0.13700
C663        C  0.42335286  0.69743325  0.87631892    -0.23900
H664        H  0.95396604  0.76507799  0.88125043     0.15000
H665        H  0.52116742  0.68251545  0.81573894     0.15100
C666        C  0.05559215  0.74842778  0.82982846    -0.23900
H667        H  0.40920628  0.71822636  0.88645058     0.05300
H668        H  0.42756139  0.68049272  0.89833055     0.08500
H669        H  0.40861168  0.68532410  0.85599189     0.08500
H670        H  0.07092869  0.75620282  0.85197660     0.08500
H671        H  0.05277467  0.76880844  0.81111154     0.08500
H672        H  0.06850613  0.72851455  0.81633781     0.05300
C673        C  0.31985758  0.96654806  0.52412001    -0.20500
C674        C  0.33888132  0.99005084  0.54049578    -0.07100
C675        C  0.35877915  0.51473492  0.50800010     0.13800
C676        C  0.35675769  0.00918698  0.48332110    -0.20600
C677        C  0.33979099  0.98413078  0.46716823    -0.07100
C678        C  0.31977197  0.96354909  0.48766121     0.13700
C679        C  0.29835458  0.93823273  0.47118796    -0.23900
H680        H  0.30556919  0.95009209  0.53987606     0.15000
H681        H  0.37178358  0.52788235  0.45550164     0.15100
C682        C  0.38249074  0.53878208  0.52306434    -0.23900
H683        H  0.28243528  0.92634302  0.49071396     0.05300
H684        H  0.31299748  0.91893589  0.45890517     0.08500
H685        H  0.28266117  0.94979139  0.45124029     0.08500
H686        H  0.40040631  0.52592338  0.53961407     0.08500
H687        H  0.36955832  0.55728142  0.53859616     0.08500
H688        H  0.39608886  0.55194250  0.50246821     0.05300
C689        C  0.00188944  0.02362992  0.64297361    -0.20500
C690        C  0.01406721  0.99606335  0.62565964    -0.07100
C691        C  0.49388021  0.97360558  0.59907747     0.13800
C692        C  0.46180728  0.98393645  0.59450121    -0.20600
C693        C  0.44837505  0.00860130  0.61528544    -0.07100
C694        C  0.47259892  0.52577969  0.62729941     0.13700
C695        C  0.96278566  0.56000977  0.65354333    -0.23900
H696        H  0.02142509  0.53296144  0.65519176     0.15000
H697        H  0.44619406  0.97067868  0.57686983     0.15100
C698        C  0.50695783  0.94666122  0.57687052    -0.23900
H699        H  0.98284532  0.57134194  0.66840797     0.05300
H700        H  0.44083801  0.54827357  0.66469037     0.08500
H701        H  0.45099233  0.57320781  0.62732136     0.08500
H702        H  0.01233308  0.93197328  0.59556657     0.08500
H703        H  0.02920849  0.96075118  0.56464024     0.08500
H704        H  0.48902869  0.93865077  0.55715013     0.05300
C705        C  0.21456706  0.94974332  0.64229290    -0.20500
C706        C  0.19810648  0.95536905  0.67356769    -0.07100
C707        C  0.21552872  0.96860397  0.70202019     0.13800
C708        C  0.25178610  0.48171149  0.68635832    -0.20600
C709        C  0.26377433  0.97436066  0.66557051    -0.07100
C710        C  0.24701983  0.95919644  0.63791909     0.13700
C711        C  0.26300625  0.95416967  0.60315414    -0.23900
H712        H  0.20124922  0.94029720  0.62022274     0.15000
H713        H  0.26534981  0.49146578  0.70806623     0.15100
C714        C  0.20481706  0.47312197  0.72695476    -0.23900
H715        H  0.24639305  0.94265026  0.58412601     0.05300
H716        H  0.28438503  0.93818256  0.60627669     0.08500
H717        H  0.27078254  0.97790592  0.59228125     0.08500
H718        H  0.19046299  0.94914596  0.74637493     0.08500
H719        H  0.18420166  0.49027273  0.72674618     0.08500
H720        H  0.22248724  0.48196517  0.74652755     0.05300
C721        C  0.44908222  0.52748589  0.75843114    -0.20500
C722        C  0.43634995  0.55440380  0.77628090    -0.07100
C723        C  0.40449112  0.56463392  0.76779437     0.13800
C724        C  0.38647121  0.54780398  0.74264392    -0.20600
C725        C  0.39888419  0.52092337  0.72472523    -0.07100
C726        C  0.43084181  0.51073671  0.73277270     0.13700
C727        C  0.44319657  0.97722067  0.72504246    -0.23900
H728        H  0.47319696  0.51922434  0.76487382     0.15000
H729        H  0.36245107  0.55641446  0.73615720     0.15100
C730        C  0.38939353  0.59426342  0.78408508    -0.23900
H731        H  0.46803478  0.97159399  0.73424689     0.05300
H732        H  0.44430058  0.98119339  0.69648943     0.08500
H733        H  0.42759679  0.95595030  0.73081663     0.08500
H734        H  0.40591484  0.61536600  0.78129876     0.08500
H735        H  0.38411775  0.58978508  0.81197038     0.08500
H736        H  0.36609819  0.60077749  0.77148177     0.05300
O737        O  0.80584642  0.02085058  0.64983881    -0.72000
O738        O  0.89547264  0.03846445  0.62777419    -0.72200
O739        O  0.84137052  0.02604174  0.59164003    -0.72100
O740        O  0.86033488  0.03691336  0.68598228    -0.72100
O741        O  0.87796247  0.98769817  0.69000813    -0.72100
O742        O  0.84780376  0.47630765  0.59325944    -0.72100
O743        O  0.90457964  0.48549345  0.62276869    -0.72000
O744        O  0.82107323  0.47577335  0.65826318    -0.72200
V745        V  0.85069235  0.02963062  0.63902490     1.35200
V746        V  0.86306191  0.48241511  0.64047819     1.35200
C747        C  0.79758749  0.99198370  0.65783482     0.77200
C748        C  0.91422870  0.01438588  0.62296416     0.77300
C749        C  0.84551459  0.50146911  0.57394494     0.77100
C750        C  0.87652888  0.01625148  0.70268570     0.77100
O751        O  0.95017189  0.14166299  0.87360025    -0.72000
O752        O  0.96191087  0.04967495  0.89200775    -0.72200
O753        O  0.97180000  0.10535398  0.92589759    -0.72100
O754        O  0.93547048  0.08486132  0.83959246    -0.72100
O755        O  0.98296556  0.07894829  0.81671479    -0.72100
O756        O  0.01844145  0.11476096  0.90203036    -0.72100
O757        O  0.01131754  0.05642550  0.87459333    -0.72000
O758        O  0.99358355  0.13920899  0.84248061    -0.72200
V759        V  0.95536515  0.09542268  0.88209193     1.35200
V760        V  0.00067479  0.09742099  0.85917123     1.35200
C761        C  0.97204760  0.15635254  0.85610093     0.77200
C762        C  0.99022326  0.03817005  0.88710471     0.77300
C763        C  0.00045002  0.11476610  0.92904305     0.77100
C764        C  0.95232171  0.07595503  0.81414087     0.77100
O765        O  0.65143572  0.43529555  0.64666743    -0.72000
O766        O  0.56112580  0.44798487  0.62488339    -0.72200
O767        O  0.61768339  0.45509759  0.59235008    -0.72100
O768        O  0.59373766  0.42375532  0.68008654    -0.72100
O769        O  0.59093141  0.47244072  0.70097690    -0.72100
O770        O  0.62485124  0.50362546  0.61266729    -0.72100
O771        O  0.56691905  0.49763453  0.64200528    -0.72000
O772        O  0.65080506  0.48189451  0.67276251    -0.72200
V773        V  0.60600018  0.44124009  0.63678229     1.35200
V774        V  0.60839965  0.48791732  0.65694899     1.35200
C775        C  0.66668796  0.45834830  0.66136624     0.77200
C776        C  0.54943277  0.47637610  0.62838210     0.77300
C777        C  0.62602640  0.48392337  0.58714563     0.77100
C778        C  0.58643988  0.44203680  0.70498167     0.77100
O779        O  0.53942068  0.29382467  0.87054711    -0.72000
O780        O  0.55358154  0.38362531  0.89371923    -0.72200
O781        O  0.54437051  0.32823655  0.92932619    -0.72100
O782        O  0.55234898  0.34944796  0.83519334    -0.72100
O783        O  0.50336438  0.36757139  0.83386967    -0.72100
O784        O  0.99159889  0.33812721  0.93070629    -0.72100
O785        O  0.50153666  0.38795809  0.89962486    -0.72000
O786        O  0.48943338  0.30634672  0.85974938    -0.72200
V787        V  0.54661365  0.33871606  0.88211240     1.35200
V788        V  0.49732354  0.34729064  0.87942661     1.35200
C789        C  0.51110427  0.28502696  0.86146104     0.77200
C790        C  0.52891204  0.40084470  0.90084681     0.77300
C791        C  0.51742349  0.32472015  0.94387906     0.77100
C792        C  0.53143730  0.36648990  0.81994647     0.77100
O793        O  0.55450995  0.13641881  0.14406382    -0.72000
O794        O  0.56839975  0.04646675  0.12143217    -0.72200
O795        O  0.55859806  0.10140300  0.08512995    -0.72100
O796        O  0.56806689  0.08075562  0.17977448    -0.72100
O797        O  0.51865364  0.06356542  0.18221514    -0.72100
O798        O  0.50633175  0.09981370  0.08969734    -0.72100
O799        O  0.51621876  0.04177477  0.11711551    -0.72000
O800        O  0.50453086  0.12413047  0.15506742    -0.72200
V801        V  0.56154169  0.09141050  0.13269866     1.35200
V802        V  0.51221600  0.08282829  0.13624417     1.35200
C803        C  0.52631714  0.14538866  0.15337914     0.77200
C804        C  0.54360554  0.02905161  0.11531750     0.77300
C805        C  0.53141300  0.10370490  0.07078163     0.77100
C806        C  0.54702567  0.06414041  0.19548108     0.77100
O807        O  0.66930798  0.01190750  0.36694124    -0.72000
O808        O  0.57996713  0.01579802  0.39728782    -0.72200
O809        O  0.63752695  0.01005848  0.42781665    -0.72100
O810        O  0.61043729  0.02200582  0.33552719    -0.72100
O811        O  0.60549788  0.97013848  0.32779703    -0.72100
O812        O  0.63053469  0.46724826  0.42062053    -0.72100
O813        O  0.57368488  0.47404812  0.38994288    -0.72000
O814        O  0.65797803  0.46548067  0.35682287    -0.72200
V815        V  0.62440740  0.01400277  0.38143079     1.35200
V816        V  0.61567874  0.47165074  0.37320638     1.35200
C817        C  0.68180014  0.98423148  0.36061054     0.77200
C818        C  0.56428459  0.98922489  0.39971197     0.77300
C819        C  0.63457217  0.49282252  0.43862832     0.77100
C820        C  0.60146672  0.99899692  0.31646743     0.77100
O821        O  0.82969001  0.43957918  0.36849009    -0.72000
O822        O  0.91803192  0.45426844  0.39726760    -0.72200
O823        O  0.85910014  0.46240352  0.42428053    -0.72100
O824        O  0.88984645  0.42692685  0.34157017    -0.72100
O825        O  0.89562941  0.47447776  0.31845719    -0.72100
O826        O  0.85278509  0.50959189  0.39988039    -0.72100
O827        O  0.91304712  0.50324537  0.37755228    -0.72000
O828        O  0.83265464  0.48420238  0.33895509    -0.72200
V829        V  0.87412756  0.44645690  0.38214743     1.35200
V830        V  0.87332344  0.49192575  0.35881989     1.35200
C831        C  0.81550279  0.46142622  0.35058708     0.77200
C832        C  0.92990922  0.48259321  0.39310973     0.77300
C833        C  0.85030486  0.49132033  0.42662420     0.77100
C834        C  0.90135567  0.44406393  0.31741595     0.77100
O835        O  0.96637844  0.30637813  0.15944436    -0.72000
O836        O  0.97904407  0.39716266  0.13744500    -0.72200
O837        O  0.98379231  0.34057008  0.10391670    -0.72100
O838        O  0.95733676  0.36402082  0.19318358    -0.72100
O839        O  0.00713834  0.36784220  0.21056757    -0.72100
O840        O  0.03281249  0.33171663  0.12182659    -0.72100
O841        O  0.02964922  0.39011656  0.15016277    -0.72000
O842        O  0.01366440  0.30694656  0.18352990    -0.72200
V843        V  0.97236728  0.35193424  0.14907180     1.35200
V844        V  0.01985808  0.34900330  0.16644623     1.35200
C845        C  0.98949249  0.29085020  0.17382636     0.77200
C846        C  0.00770189  0.40849856  0.13971137     0.77300
C847        C  0.01207477  0.33170339  0.09722248     0.77100
C848        C  0.97713975  0.37283118  0.21606839     0.77100
C849        C  0.96655123  0.42413853  0.24850467    -0.20500
C850        C  0.96376856  0.39013060  0.24673995    -0.07100
C851        C  0.94078640  0.37458355  0.26812211     0.09800
C852        C  0.92049565  0.39311219  0.28954126    -0.20600
C853        C  0.92227640  0.42730551  0.29086956    -0.07100
C854        C  0.94647454  0.44287248  0.27058036     0.13700
C855        C  0.95157400  0.47897428  0.27219335    -0.23900
H856        H  0.98352573  0.43627272  0.23137126     0.15000
H857        H  0.90284093  0.38045499  0.30540936     0.15100
C858        C  0.93750758  0.33814611  0.26819770    -0.23900
H859        H  0.97180063  0.48688172  0.25513886     0.05300
H860        H  0.95755767  0.48622106  0.29924236     0.08500
H861        H  0.92936079  0.49172679  0.26349485     0.08500
H862        H  0.96107404  0.32699141  0.27518163     0.08500
H863        H  0.92997886  0.32946102  0.24213970     0.08500
H864        H  0.91919151  0.32968001  0.28731898     0.05300
C865        C  0.97453410  0.52276059  0.39039004    -0.20500
C866        C  0.96300385  0.49274215  0.40355750    -0.07100
C867        C  0.48174695  0.46191723  0.41665844     0.13800
C868        C  0.51403494  0.47198980  0.41999676    -0.20600
C869        C  0.52568102  0.50025311  0.40329360    -0.07100
C870        C  0.01082109  0.02687410  0.39711122     0.13700
C871        C  0.02235269  0.05706173  0.37863336    -0.23900
H872        H  0.96198432  0.03435572  0.38146870     0.15000
H873        H  0.53100515  0.45618813  0.43328374     0.15100
C874        C  0.47115082  0.43072236  0.43367816    -0.23900
H875        H  0.00194167  0.07117412  0.36748316     0.05300
H876        H  0.52921744  0.04990271  0.38442162     0.08500
H877        H  0.53392845  0.05173192  0.43133703     0.08500
H878        H  0.96543340  0.42484605  0.42278616     0.08500
H879        H  0.95164984  0.44887242  0.45941301     0.08500
H880        H  0.49080035  0.41982612  0.44958204     0.05300
C881        C  0.76718797  0.49325631  0.33178723    -0.20500
C882        C  0.77945429  0.46433507  0.34683945    -0.07100
C883        C  0.75716988  0.44258212  0.36229673     0.13800
C884        C  0.72425450  0.45121806  0.36413219    -0.20600
C885        C  0.71263447  0.48118310  0.35140948    -0.07100
C886        C  0.73962437  0.00190432  0.34485100     0.13700
C887        C  0.72927160  0.03619569  0.33717131    -0.23900
H888        H  0.78938988  0.01257933  0.33450508     0.15000
H889        H  0.70753924  0.43474964  0.37686202     0.15100
C890        C  0.76758087  0.41042377  0.37726899    -0.23900
H891        H  0.74983792  0.05143631  0.32822716     0.05300
H892        H  0.71933445  0.04747471  0.36104190     0.08500
H893        H  0.71062893  0.03627002  0.31636869     0.08500
H894        H  0.78376609  0.41414766  0.39988012     0.08500
H895        H  0.78027906  0.39612907  0.35704487     0.08500
H896        H  0.74661765  0.39589392  0.38650142     0.05300
C897        C  0.55057409  0.48063796  0.13705209    -0.20500
C898        C  0.54400370  0.99367489  0.11336449    -0.07100
C899        C  0.02166415  0.98787043  0.09212241     0.13800
C900        C  0.00444217  0.45694759  0.10116430    -0.20600
C901        C  0.01714109  0.44203925  0.13092789    -0.07100
C902        C  0.53973190  0.44991866  0.14712544     0.13700
C903        C  0.55295508  0.43589670  0.18064761    -0.23900
H904        H  0.56713157  0.49373542  0.15382079     0.15000
H905        H  0.98666067  0.44414110  0.08568174     0.15100
C906        C  0.00883913  0.00328761  0.05927614    -0.23900
H907        H  0.56831811  0.45358936  0.19483713     0.05300
H908        H  0.56830055  0.41447546  0.17527818     0.08500
H909        H  0.53278821  0.42894679  0.19814264     0.08500
H910        H  0.02934815  0.01005627  0.04210372     0.08500
H911        H  0.99453510  0.02527954  0.06531011     0.08500
H912        H  0.99292065  0.98641433  0.04469683     0.05300
C913        C  0.98091698  0.20042133  0.15358978    -0.20500
C914        C  0.51727674  0.17984000  0.16009340    -0.07100
C915        C  0.53805095  0.20209445  0.17647300     0.13800
C916        C  0.52768381  0.23422801  0.18129865    -0.20600
C917        C  0.99185240  0.25459947  0.17602523    -0.07100
C918        C  0.97191334  0.23325351  0.15676405     0.13700
C919        C  0.94199537  0.24488041  0.13817587    -0.23900
H920        H  0.96602499  0.18431870  0.13814124     0.15000
H921        H  0.54437231  0.25094485  0.19351403     0.15100
C922        C  0.57107436  0.19214272  0.18919672    -0.23900
H923        H  0.92894781  0.22466173  0.12528780     0.05300
H924        H  0.94865585  0.26271484  0.11768500     0.08500
H925        H  0.92518688  0.25617863  0.15708321     0.08500
H926        H  0.58639632  0.18486888  0.16687041     0.08500
H927        H  0.56880391  0.17153805  0.20772208     0.08500
H928        H  0.58363249  0.21226504  0.20279256     0.05300
C929        C  0.55266824  0.01467374  0.28143140    -0.20500
C930        C  0.58607614  0.00756239  0.28245890    -0.07100
C931        C  0.60534974  0.01742036  0.25415262     0.13800
C932        C  0.59136562  0.03483457  0.22640198    -0.20600
C933        C  0.55827933  0.04357494  0.22583146    -0.07100
C934        C  0.53849167  0.03218110  0.25336299     0.13700
C935        C  0.50292625  0.03966237  0.25413978    -0.23900
H936        H  0.53787229  0.00796244  0.30360966     0.15000
H937        H  0.60687914  0.04224368  0.20507627     0.15100
C938        C  0.64114245  0.01053386  0.25384515    -0.23900
H939        H  0.49121526  0.02985867  0.27796476     0.05300
H940        H  0.49087498  0.02859211  0.23127203     0.08500
H941        H  0.49923558  0.06631914  0.25359721     0.08500
H942        H  0.64519708  0.98397133  0.25560301     0.08500
H943        H  0.65302141  0.02252216  0.27629945     0.08500
H944        H  0.65285275  0.01956733  0.22967518     0.05300
C945        C  0.54517924  0.32731894  0.00107083    -0.20500
C946        C  0.51740673  0.31803603  0.98197700    -0.07100
C947        C  0.99309236  0.30997375  0.00476265     0.13800
C948        C  0.99438979  0.30832451  0.04130778    -0.20600
C949        C  0.01904348  0.32391017  0.06043502    -0.07100
C950        C  0.54607716  0.32606824  0.03755891     0.13700
C951        C  0.57504620  0.33934699  0.05656967    -0.23900
H952        H  0.56578523  0.33761893  0.98754393     0.15000
H953        H  0.97482000  0.29652713  0.05525337     0.15100
C954        C  0.96596100  0.29332794  0.98569130    -0.23900
H955        H  0.59420743  0.34760740  0.03832574     0.05300
H956        H  0.58549651  0.32020730  0.07355380     0.08500
H957        H  0.56779238  0.36040646  0.07268019     0.08500
H958        H  0.97606397  0.27589778  0.96662637     0.08500
H959        H  0.95088545  0.31150330  0.97186546     0.08500
H960        H  0.94996982  0.27967439  0.00377315     0.05300
C961        C  0.65412044  0.46949302  0.53264673    -0.20500
C962        C  0.63551998  0.49242401  0.55103940    -0.07100
C963        C  0.61984091  0.51723243  0.53230748     0.13800
C964        C  0.62157526  0.51738668  0.49575191    -0.20600
C965        C  0.63781580  0.49278698  0.47722298    -0.07100
C966        C  0.64898153  0.95501020  0.50120416     0.13700
C967        C  0.66089335  0.92446264  0.48416679    -0.23900
H968        H  0.65283974  0.93474358  0.55266959     0.15000
H969        H  0.60839691  0.53583302  0.48146124     0.15100
C970        C  0.59928060  0.54203154  0.55054198    -0.23900
H971        H  0.66849057  0.90605395  0.50368521     0.05300
H972        H  0.68205361  0.93007741  0.46740790     0.08500
H973        H  0.64134587  0.91356909  0.46823465     0.08500
H974        H  0.61437097  0.55592918  0.56916570     0.08500
H975        H  0.57936542  0.52976847  0.56485644     0.08500
H976        H  0.58829881  0.55948649  0.53191121     0.05300
C977        C  0.54117985  0.43253809  0.74824089    -0.20500
C978        C  0.57311720  0.42642899  0.73714239    -0.07100
C979        C  0.59005192  0.40043512  0.75266031     0.13800
C980        C  0.57475195  0.38082141  0.77760565    -0.20600
C981        C  0.54276757  0.38636874  0.78904975    -0.07100
C982        C  0.52596118  0.41313527  0.77426745     0.13700
C983        C  0.49227183  0.42153610  0.78585248    -0.23900
H984        H  0.52781907  0.45204864  0.73592839     0.15000
H985        H  0.58856454  0.36101146  0.78869716     0.15100
C986        C  0.62488442  0.39353134  0.74343267    -0.23900
H987        H  0.48273163  0.44302463  0.77176638     0.05300
H988        H  0.49227349  0.42728225  0.81403518     0.08500
H989        H  0.47578395  0.40080833  0.78084754     0.08500
H990        H  0.63971467  0.41563714  0.74761957     0.08500
H991        H  0.62693750  0.38588623  0.71590779     0.08500
H992        H  0.63522958  0.37380308  0.75972320     0.05300
C993        C  0.54742831  0.09558969  0.97329203    -0.20500
C994        C  0.01140571  0.12277664  0.96469281    -0.07100
C995        C  0.99112294  0.14056340  0.98755420     0.13800
C996        C  0.99546591  0.13793703  0.02381495    -0.20600
C997        C  0.53010528  0.10901149  0.03247649    -0.07100
C998        C  0.55117698  0.09212507  0.00951047     0.13700
C999        C  0.57627473  0.06857791  0.02274914    -0.23900
H1000       H  0.56151970  0.08058445  0.95588992     0.15000
H1001       H  0.97936676  0.15068525  0.04126896     0.15100
C1002       C  0.96470902  0.16232796  0.97375282    -0.23900
H1003       H  0.58878006  0.05588959  0.00117257     0.05300
H1004       H  0.56464713  0.04991186  0.03944262     0.08500
H1005       H  0.59501326  0.08168693  0.03785483     0.08500
H1006       H  0.94566114  0.14797719  0.96057361     0.08500
H1007       H  0.97515261  0.18007411  0.95506419     0.08500
H1008       H  0.95285512  0.17613878  0.99495290     0.05300
C1009       C  0.53789728  0.45167046  0.87187574    -0.20500
C1010       C  0.52931901  0.43628157  0.90287782    -0.07100
C1011       C  0.01167748  0.45974449  0.92984810     0.13800
C1012       C  0.00059719  0.49065204  0.92022300    -0.20600
C1013       C  0.00070508  0.00476560  0.89511196    -0.07100
C1014       C  0.53502934  0.98152212  0.87730447     0.13700
C1015       C  0.55154643  0.99551595  0.84547988    -0.23900
H1016       H  0.55197113  0.43842004  0.85282138     0.15000
H1017       H  0.98351430  0.50318173  0.93679523     0.15100
C1018       C  0.99881574  0.44476103  0.96286732    -0.23900
H1019       H  0.56857700  0.97805750  0.83339983     0.05300
H1020       H  0.56603006  0.01714684  0.85264492     0.08500
H1021       H  0.53324640  0.00191586  0.82544376     0.08500
H1022       H  0.00995490  0.42081914  0.96844696     0.08500
H1023       H  0.97221006  0.44162454  0.96082056     0.08500
H1024       H  0.00428520  0.46091925  0.98515363     0.05300
C1025       C  0.47289120  0.23933688  0.87116785    -0.20500
C1026       C  0.50177240  0.25062055  0.85579773    -0.07100
C1027       C  0.52005340  0.22919935  0.83542650     0.13800
C1028       C  0.00696020  0.20339724  0.84079708    -0.20600
C1029       C  0.97699919  0.19244603  0.85444096    -0.07100
C1030       C  0.95625904  0.21563545  0.86962074     0.13700
C1031       C  0.92361517  0.20631940  0.88382243    -0.23900
H1032       H  0.45846767  0.25604724  0.88632275     0.15000
H1033       H  0.02327952  0.18636305  0.82864334     0.15100
C1034       C  0.55009250  0.24043646  0.81674443    -0.23900
H1035       H  0.91007642  0.22777305  0.89331371     0.05300
H1036       H  0.92648810  0.18934604  0.90607026     0.08500
H1037       H  0.90899874  0.19466208  0.86309252     0.08500
H1038       H  0.56853213  0.24841686  0.83587660     0.08500
H1039       H  0.54406465  0.26093646  0.79908898     0.08500
H1040       H  0.56091261  0.22080490  0.80086689     0.05300
C1041       C  0.81916029  0.48497980  0.51788713    -0.20500
C1042       C  0.84428203  0.50084749  0.53539518    -0.07100
C1043       C  0.85552480  0.02219574  0.51766060     0.13800
C1044       C  0.86520917  0.51978064  0.47938917    -0.20600
C1045       C  0.84146162  0.50228294  0.46174041    -0.07100
C1046       C  0.81765334  0.48531702  0.48121457     0.13700
C1047       C  0.79116592  0.46681679  0.46308112    -0.23900
H1048       H  0.80104524  0.47199373  0.53281482     0.15000
H1049       H  0.86939992  0.03620886  0.46566295     0.15100
C1050       C  0.87480151  0.04963063  0.53334605    -0.23900
H1051       H  0.77390609  0.45587669  0.48190830     0.05300
H1052       H  0.80166986  0.44694090  0.44743698     0.08500
H1053       H  0.77748308  0.48341857  0.44567920     0.08500
H1054       H  0.89365294  0.03977049  0.55102176     0.08500
H1055       H  0.85857402  0.06619651  0.54780162     0.08500
H1056       H  0.88723633  0.06442832  0.51317414     0.05300
C1057       C  0.50424755  0.51523015  0.63306448    -0.20500
C1058       C  0.51632561  0.48640510  0.61812046    -0.07100
C1059       C  0.99631387  0.47465240  0.59833104     0.13800
C1060       C  0.96470338  0.48610500  0.59363053    -0.20600
C1061       C  0.95267316  0.51253740  0.61286858    -0.07100
C1062       C  0.96971957  0.03375546  0.63888775     0.13700
C1063       C  0.45611487  0.05450528  0.65854592    -0.23900
H1064       H  0.51557616  0.02903461  0.66055522     0.15000
H1065       H  0.94828552  0.47249923  0.57719693     0.15100
C1066       C  0.00729032  0.44522510  0.57849514    -0.23900
H1067       H  0.47551601  0.06588584  0.67435075     0.05300
H1068       H  0.93788621  0.05241373  0.67841240     0.08500
H1069       H  0.94706902  0.08045195  0.64340442     0.08500
H1070       H  0.51471128  0.42074697  0.59265147     0.08500
H1071       H  0.53189285  0.44733175  0.55972029     0.08500
H1072       H  0.98844656  0.43661255  0.56009738     0.05300
C1073       C  0.71258961  0.48245199  0.63098934    -0.20500
C1074       C  0.70204049  0.46292925  0.65878053    -0.07100
C1075       C  0.72346442  0.45647711  0.68645714     0.13800
C1076       C  0.74650893  0.98991889  0.69264437    -0.20600
C1077       C  0.76559553  0.48918269  0.65758357    -0.07100
C1078       C  0.74380335  0.49586177  0.63013340     0.13700
C1079       C  0.75350619  0.51641177  0.59932229    -0.23900
H1080       H  0.69570633  0.48834436  0.61031011     0.15000
H1081       H  0.75846279  0.00482486  0.71194622     0.15100
C1082       C  0.69777279  0.98882417  0.73154736    -0.23900
H1083       H  0.73364745  0.51857334  0.57997462     0.05300
H1084       H  0.77460039  0.50538108  0.58606131     0.08500
H1085       H  0.75983588  0.54122570  0.60809852     0.08500
H1086       H  0.70444800  0.41255068  0.70875238     0.08500
H1087       H  0.67781400  0.00608953  0.72639869     0.08500
H1088       H  0.71470807  0.00091782  0.74982116     0.05300
C1089       C  0.94384515  0.03065732  0.77095666    -0.20500
C1090       C  0.93511828  0.06146509  0.78357308    -0.07100
C1091       C  0.90643078  0.07583670  0.77067811     0.13800
C1092       C  0.88706320  0.05904527  0.74669883    -0.20600
C1093       C  0.89544776  0.02822821  0.73372428    -0.07100
C1094       C  0.92463975  0.01404700  0.74601260     0.13700
C1095       C  0.94483062  0.48725293  0.72128541    -0.23900
H1096       H  0.96548077  0.01925828  0.78109411     0.15000
H1097       H  0.86532123  0.07079310  0.73725858     0.15100
C1098       C  0.89649380  0.10965532  0.78116058    -0.23900
H1099       H  0.96973906  0.48171531  0.73030276     0.05300
H1100       H  0.94581833  0.49122063  0.69274025     0.08500
H1101       H  0.92930925  0.46593282  0.72708657     0.08500
H1102       H  0.91670017  0.12682714  0.77620543     0.08500
H1103       H  0.88980852  0.11030563  0.80906809     0.08500
H1104       H  0.87518153  0.11828303  0.76617015     0.05300
O1105       O  0.81030878  0.52586802  0.64529974    -0.72000
O1106       O  0.90080984  0.53793419  0.62523257    -0.72200
O1107       O  0.84709274  0.52875026  0.58810302    -0.72100
O1108       O  0.86493759  0.53879171  0.68294579    -0.72100
O1109       O  0.88107835  0.48900359  0.68668757    -0.72100
O1110       O  0.84714508  0.97392593  0.59588943    -0.72100
O1111       O  0.90292493  0.98639616  0.62657811    -0.72000
O1112       O  0.81937668  0.97081595  0.65981004    -0.72200
V1113       V  0.85563484  0.53198198  0.63569350     1.35200
V1114       V  0.86123763  0.98052823  0.64331486     1.35200
C1115       C  0.80040931  0.49787062  0.65455840     0.77200
C1116       C  0.91773780  0.51270871  0.61970061     0.77300
C1117       C  0.84218024  0.99895211  0.57701732     0.77100
C1118       C  0.88059553  0.51754020  0.69945577     0.77100
O1119       O  0.95814973  0.64151228  0.86953377    -0.72000
O1120       O  0.97220886  0.54995379  0.88736620    -0.72200
O1121       O  0.98253005  0.60574415  0.92058760    -0.72100
O1122       O  0.94296337  0.58449661  0.83626549    -0.72100
O1123       O  0.98925744  0.58065787  0.81033437    -0.72100
O1124       O  0.02848065  0.61453058  0.89489943    -0.72100
O1125       O  0.02023065  0.55669388  0.86602575    -0.72000
O1126       O  0.00104968  0.64050011  0.83746535    -0.72200
V1127       V  0.96453936  0.59545895  0.87764181     1.35200
V1128       V  0.00883151  0.59816308  0.85243413     1.35200
C1129       C  0.97944436  0.65694097  0.85197771     0.77200
C1130       C  0.00019166  0.53851708  0.88056563     0.77300
C1131       C  0.01138377  0.61473627  0.92258694     0.77100
C1132       C  0.95860874  0.57670497  0.80955513     0.77100
O1133       O  0.64666312  0.93497355  0.65725555    -0.72000
O1134       O  0.55688019  0.94952780  0.63266912    -0.72200
O1135       O  0.61413919  0.95124141  0.60030059    -0.72100
O1136       O  0.58773420  0.92842537  0.69020296    -0.72100
O1137       O  0.58688564  0.97882929  0.70614598    -0.72100
O1138       O  0.62341771  0.00090519  0.61567814    -0.72100
O1139       O  0.56479074  0.00025555  0.64461715    -0.72000
O1140       O  0.64735250  0.98359028  0.67834676    -0.72200
V1141       V  0.60145470  0.94183123  0.64570622     1.35200
V1142       V  0.60562564  0.98990978  0.66109456     1.35200
C1143       C  0.66256865  0.95837916  0.67070064     0.77200
C1144       C  0.54625539  0.97855753  0.63373611     0.77300
C1145       C  0.62394064  0.97901450  0.59220818     0.77100
C1146       C  0.58040279  0.94911629  0.71274544     0.77100
O1147       O  0.53255763  0.79470456  0.86791605    -0.72000
O1148       O  0.54906708  0.88085648  0.90151325    -0.72200
O1149       O  0.53764231  0.82273497  0.93059911    -0.72100
O1150       O  0.54744053  0.85377668  0.83912664    -0.72100
O1151       O  0.49776264  0.87028453  0.83811164    -0.72100
O1152       O  0.99181147  0.83528848  0.93296171    -0.72100
O1153       O  0.49709770  0.88774648  0.90456320    -0.72000
O1154       O  0.48230021  0.80817015  0.86079518    -0.72200
V1155       V  0.54071279  0.83790721  0.88460598     1.35200
V1156       V  0.49153882  0.84807649  0.88247878     1.35200
C1157       C  0.50385850  0.78668955  0.85948876     0.77200
C1158       C  0.52502735  0.89888933  0.90855273     0.77300
C1159       C  0.51061901  0.82096906  0.94547329     0.77100
C1160       C  0.52618831  0.87140386  0.82511024     0.77100
O1161       O  0.54837762  0.63887020  0.14151197    -0.72000
O1162       O  0.56151085  0.54944968  0.11604476    -0.72200
O1163       O  0.55113304  0.60525327  0.08148028    -0.72100
O1164       O  0.56249529  0.58242809  0.17525325    -0.72100
O1165       O  0.51263912  0.56666828  0.17913158    -0.72100
O1166       O  0.49896478  0.60206996  0.08647420    -0.72100
O1167       O  0.50925816  0.54427215  0.11433520    -0.72000
O1168       O  0.49812071  0.62674918  0.15169399    -0.72200
V1169       V  0.55496683  0.59413354  0.12867996     1.35200
V1170       V  0.50560699  0.58547219  0.13309828     1.35200
C1171       C  0.52014994  0.64771474  0.15076040     0.77200
C1172       C  0.53662669  0.53184460  0.11096087     0.77300
C1173       C  0.52378570  0.60667427  0.06735970     0.77100
C1174       C  0.54130307  0.56664082  0.19163453     0.77100
O1175       O  0.66681695  0.51692396  0.36345378    -0.72000
O1176       O  0.57703208  0.52653669  0.38903180    -0.72200
O1177       O  0.63287489  0.51973159  0.42327996    -0.72100
O1178       O  0.60986875  0.52731131  0.32890828    -0.72100
O1179       O  0.59888482  0.47589635  0.32624828    -0.72100
O1180       O  0.63312427  0.95790749  0.42353568    -0.72100
O1181       O  0.57790263  0.96383627  0.38983368    -0.72000
O1182       O  0.66333743  0.96007349  0.36096154    -0.72200
V1183       V  0.62177260  0.52168211  0.37592324     1.35200
V1184       V  0.62036485  0.96404057  0.37538963     1.35200
C1185       C  0.67767304  0.48871432  0.35669227     0.77200
C1186       C  0.56042243  0.50098918  0.39448269     0.77300
C1187       C  0.63770516  0.98284510  0.44251644     0.77100
C1188       C  0.59766515  0.50401808  0.31240561     0.77100
O1189       O  0.83430205  0.93567860  0.36994483    -0.72000
O1190       O  0.92238021  0.94963117  0.40023382    -0.72200
O1191       O  0.86311254  0.95597300  0.42711482    -0.72100
O1192       O  0.89523749  0.92480961  0.34278066    -0.72100
O1193       O  0.90166845  0.97376084  0.32345469    -0.72100
O1194       O  0.85464500  0.00352238  0.40449232    -0.72100
O1195       O  0.91605578  0.99981246  0.38494323    -0.72000
O1196       O  0.83786722  0.98086774  0.34149999    -0.72200
V1197       V  0.87868195  0.94211159  0.38431895     1.35200
V1198       V  0.87743789  0.98857692  0.36363778     1.35200
C1199       C  0.82038581  0.95817650  0.35268277     0.77200
C1200       C  0.93352502  0.97845582  0.39852370     0.77300
C1201       C  0.85225509  0.98412402  0.43030774     0.77100
C1202       C  0.90780356  0.94354528  0.32063689     0.77100
O1203       O  0.96977113  0.80782717  0.16226948    -0.72000
O1204       O  0.98426216  0.89770739  0.13863926    -0.72200
O1205       O  0.98701413  0.84054152  0.10607734    -0.72100
O1206       O  0.96279208  0.86650241  0.19527973    -0.72100
O1207       O  0.01293503  0.86831046  0.21195172    -0.72100
O1208       O  0.03616694  0.83091500  0.12301417    -0.72100
O1209       O  0.03487649  0.88977671  0.15093609    -0.72000
O1210       O  0.01761814  0.80702391  0.18511987    -0.72200
V1211       V  0.97671373  0.85297867  0.15119940     1.35200
V1212       V  0.02443217  0.84890719  0.16772091     1.35200
C1213       C  0.99303185  0.79160504  0.17539980     0.77200
C1214       C  0.01311445  0.90845616  0.14053980     0.77300
C1215       C  0.01491278  0.83081045  0.09892067     0.77100
C1216       C  0.98331479  0.87522524  0.21746417     0.77100
C1217       C  0.95807440  0.92602333  0.23837406    -0.20500
C1218       C  0.97148615  0.89552877  0.24672871    -0.07100
C1219       C  0.96616893  0.88265917  0.28013576     0.09800
C1220       C  0.94612971  0.89950581  0.30358313    -0.20600
C1221       C  0.93089402  0.92916155  0.29464173    -0.07100
C1222       C  0.93822387  0.94315002  0.26193128     0.13700
C1223       C  0.92413880  0.97524032  0.25100874    -0.23900
H1224       H  0.96196293  0.93580999  0.21249007     0.15000
H1225       H  0.94180505  0.88890615  0.32899112     0.15100
C1226       C  0.98051624  0.85050227  0.29046625    -0.23900
H1227       H  0.93166173  0.98210809  0.22423639     0.05300
H1228       H  0.93260232  0.99455542  0.26886880     0.08500
H1229       H  0.89732296  0.97393612  0.25158642     0.08500
H1230       H  0.00728460  0.85180127  0.28860451     0.08500
H1231       H  0.97151526  0.83119687  0.27287550     0.08500
H1232       H  0.97404579  0.84372040  0.31757611     0.05300
C1233       C  0.97810470  0.01842316  0.39570042    -0.20500
C1234       C  0.96664675  0.98842474  0.40891008    -0.07100
C1235       C  0.48757022  0.94450589  0.41852849     0.13800
C1236       C  0.52025860  0.95312500  0.41907650    -0.20600
C1237       C  0.53060996  0.98527037  0.41235832    -0.07100
C1238       C  0.00719667  0.53145294  0.39247941     0.13700
C1239       C  0.01871110  0.56232960  0.37535679    -0.23900
H1240       H  0.95848658  0.53868985  0.37605019     0.15000
H1241       H  0.53795633  0.93387707  0.42138358     0.15100
C1242       C  0.47856101  0.90909753  0.42038704    -0.23900
H1243       H  0.99836406  0.57638457  0.36398382     0.05300
H1244       H  0.53173272  0.55022180  0.35150837     0.08500
H1245       H  0.52477046  0.56883146  0.39334203     0.08500
H1246       H  0.96899915  0.92033754  0.42750006     0.08500
H1247       H  0.95572558  0.94423024  0.46441560     0.08500
H1248       H  0.50000416  0.89344412  0.42492218     0.05300
C1249       C  0.77253758  0.99359670  0.34178971    -0.20500
C1250       C  0.78438361  0.96221079  0.34993182    -0.07100
C1251       C  0.76179825  0.93814751  0.35964192     0.13800
C1252       C  0.72874372  0.94621529  0.36157680    -0.20600
C1253       C  0.71718561  0.97801654  0.35518887    -0.07100
C1254       C  0.73437615  0.50205775  0.33420831     0.13700
C1255       C  0.72316617  0.53343313  0.31806939    -0.23900
H1256       H  0.78362028  0.51010626  0.31925782     0.15000
H1257       H  0.71186494  0.92748701  0.36955281     0.15100
C1258       C  0.77212248  0.90405893  0.36842866    -0.23900
H1259       H  0.74310571  0.54616660  0.30428129     0.05300
H1260       H  0.71395819  0.54991295  0.33852729     0.08500
H1261       H  0.70368639  0.52850395  0.29890743     0.08500
H1262       H  0.78722131  0.90403083  0.39229991     0.08500
H1263       H  0.78599361  0.89367545  0.34641159     0.08500
H1264       H  0.75104403  0.88799431  0.37346711     0.05300
C1265       C  0.55355998  0.97821732  0.14404573    -0.20500
C1266       C  0.53734737  0.49646352  0.10828647    -0.07100
C1267       C  0.01444572  0.48824386  0.09132303     0.13800
C1268       C  0.01186722  0.95631346  0.10111359    -0.20600
C1269       C  0.02276041  0.94185589  0.13196028    -0.07100
C1270       C  0.54039012  0.94829884  0.15371623     0.13700
C1271       C  0.54957703  0.93438576  0.18879966    -0.23900
H1272       H  0.56881835  0.99115859  0.16231439     0.15000
H1273       H  0.99548140  0.94308902  0.08432350     0.15100
C1274       C  0.99985147  0.50365647  0.05930739    -0.23900
H1275       H  0.56494784  0.95135621  0.20395771     0.05300
H1276       H  0.56355924  0.91167670  0.18564506     0.08500
H1277       H  0.52751459  0.92946583  0.20430585     0.08500
H1278       H  0.01932821  0.51000484  0.04064585     0.08500
H1279       H  0.98610741  0.52580383  0.06604910     0.08500
H1280       H  0.98287262  0.48690852  0.04597254     0.05300
C1281       C  0.98841989  0.70409092  0.14458240    -0.20500
C1282       C  0.51108717  0.68177682  0.15798715    -0.07100
C1283       C  0.52574525  0.70035701  0.18419597     0.13800
C1284       C  0.51428418  0.73188628  0.19062419    -0.20600
C1285       C  0.99524926  0.75540072  0.17499243    -0.07100
C1286       C  0.97858029  0.73627929  0.15023766     0.13700
C1287       C  0.95152417  0.74979934  0.12830134    -0.23900
H1288       H  0.97584150  0.68964323  0.12533289     0.15000
H1289       H  0.52631435  0.74623873  0.21032773     0.15100
C1290       C  0.55328899  0.68693684  0.20544555    -0.23900
H1291       H  0.94111564  0.73122790  0.11067937     0.05300
H1292       H  0.96069435  0.76990934  0.11179486     0.08500
H1293       H  0.93179288  0.75868194  0.14533747     0.08500
H1294       H  0.57400509  0.68123130  0.18817705     0.08500
H1295       H  0.54540287  0.66449068  0.21907048     0.08500
H1296       H  0.56173410  0.70449932  0.22531783     0.05300
C1297       C  0.54828411  0.52118968  0.27961293    -0.20500
C1298       C  0.58101940  0.51151998  0.27886377    -0.07100
C1299       C  0.59903586  0.51766741  0.24850688     0.13800
C1300       C  0.58464719  0.53442531  0.22053537    -0.20600
C1301       C  0.55256447  0.54624113  0.22193931    -0.07100
C1302       C  0.53388485  0.53857356  0.25167425     0.13700
C1303       C  0.49959364  0.55024175  0.25498042    -0.23900
H1304       H  0.53438860  0.51663304  0.30298657     0.15000
H1305       H  0.59909882  0.53908342  0.19753243     0.15100
C1306       C  0.63389701  0.50734401  0.24607138    -0.23900
H1307       H  0.48883494  0.54314152  0.28037605     0.05300
H1308       H  0.48454218  0.53955206  0.23403813     0.08500
H1309       H  0.49894013  0.57709751  0.25291253     0.08500
H1310       H  0.63561524  0.48067743  0.24968770     0.08500
H1311       H  0.64836885  0.51955399  0.26653458     0.08500
H1312       H  0.64459262  0.51361908  0.22041080     0.05300
C1313       C  0.53915871  0.81788801  0.00259193    -0.20500
C1314       C  0.51007190  0.81362624  0.98364593    -0.07100
C1315       C  0.99309847  0.80914824  0.00710914     0.13800
C1316       C  0.99468238  0.80806497  0.04364378    -0.20600
C1317       C  0.02081330  0.82174641  0.06220448    -0.07100
C1318       C  0.53984865  0.81801094  0.03921827     0.13700
C1319       C  0.57105235  0.82543397  0.05777523    -0.23900
H1320       H  0.56134349  0.82336510  0.98878422     0.15000
H1321       H  0.97419051  0.79852606  0.05795564     0.15100
C1322       C  0.96412670  0.79496838  0.98887294    -0.23900
H1323       H  0.59143653  0.82870848  0.03928531     0.05300
H1324       H  0.57726239  0.80510149  0.07556949     0.08500
H1325       H  0.56854752  0.84814405  0.07294337     0.08500
H1326       H  0.97215245  0.77659926  0.96968293     0.08500
H1327       H  0.95037034  0.81437765  0.97539535     0.08500
H1328       H  0.94740458  0.78288083  0.00745912     0.05300
C1329       C  0.64664557  0.95621828  0.53774472    -0.20500
C1330       C  0.63441144  0.98364708  0.55536883    -0.07100
C1331       C  0.62689640  0.01154361  0.53579462     0.13800
C1332       C  0.63011090  0.01068368  0.49934390    -0.20600
C1333       C  0.63980115  0.98234060  0.48142731    -0.07100
C1334       C  0.65528909  0.46921514  0.49603460     0.13700
C1335       C  0.67505863  0.44380992  0.47776362    -0.23900
H1336       H  0.66621018  0.45037361  0.54705625     0.15000
H1337       H  0.62310518  0.03200481  0.48461905     0.15100
C1338       C  0.61349143  0.04148269  0.55281417    -0.23900
H1339       H  0.68833253  0.42818549  0.49653348     0.05300
H1340       H  0.69309378  0.45569235  0.46049736     0.08500
H1341       H  0.65908852  0.42793644  0.46206282     0.08500
H1342       H  0.63125132  0.05106807  0.57185322     0.08500
H1343       H  0.59051452  0.03554006  0.56637609     0.08500
H1344       H  0.60837562  0.06093947  0.53352758     0.05300
C1345       C  0.53173938  0.92662627  0.74341070    -0.20500
C1346       C  0.56429493  0.93699807  0.74515571    -0.07100
C1347       C  0.58285006  0.92736896  0.77411225     0.13800
C1348       C  0.56917896  0.90682651  0.79959431    -0.20600
C1349       C  0.53707158  0.89508100  0.79732207    -0.07100
C1350       C  0.51778637  0.90629556  0.76932932     0.13700
C1351       C  0.48315680  0.89565355  0.76570590    -0.23900
H1352       H  0.51758670  0.93322212  0.72073601     0.15000
H1353       H  0.58413423  0.89937973  0.82134347     0.15100
C1354       C  0.61768780  0.93768215  0.77733610    -0.23900
H1355       H  0.47187746  0.90563662  0.74172900     0.05300
H1356       H  0.46894316  0.90430082  0.78831976     0.08500
H1357       H  0.48190234  0.86878953  0.76446219     0.08500
H1358       H  0.61917293  0.96456149  0.77775344     0.08500
H1359       H  0.63180614  0.92846582  0.75489445     0.08500
H1360       H  0.62895083  0.92823653  0.80156911     0.05300
C1361       C  0.53949936  0.59621819  0.97020492    -0.20500
C1362       C  0.02319977  0.62283570  0.95786351    -0.07100
C1363       C  0.00521770  0.64436463  0.97912904     0.13800
C1364       C  0.00710292  0.64185768  0.01568898    -0.20600
C1365       C  0.52222112  0.61118995  0.02894288    -0.07100
C1366       C  0.54284817  0.59323074  0.00647947     0.13700
C1367       C  0.56706755  0.56907869  0.02037509    -0.23900
H1368       H  0.55332693  0.58054381  0.95322607     0.15000
H1369       H  0.99266534  0.65768614  0.03187086     0.15100
C1370       C  0.98341833  0.66963306  0.96310343    -0.23900
H1371       H  0.57919869  0.55553036  0.99915981     0.05300
H1372       H  0.55473162  0.55115679  0.03739760     0.08500
H1373       H  0.58620667  0.58178885  0.03528595     0.08500
H1374       H  0.96346779  0.65795897  0.94848783     0.08500
H1375       H  0.99762381  0.68522830  0.94509974     0.08500
H1376       H  0.97238994  0.68544551  0.98317245     0.05300
C1377       C  0.54428573  0.95040166  0.88766591    -0.20500
C1378       C  0.52765453  0.93393881  0.91381321    -0.07100
C1379       C  0.00489732  0.95971107  0.93618128     0.13800
C1380       C  0.99233535  0.99025693  0.92687204    -0.20600
C1381       C  0.01120757  0.50537074  0.88939188    -0.07100
C1382       C  0.52487666  0.48175644  0.86277607     0.13700
C1383       C  0.53164298  0.49449641  0.82654763    -0.23900
H1384       H  0.56197016  0.93733719  0.87232047     0.15000
H1385       H  0.97603474  0.00276239  0.94431537     0.15100
C1386       C  0.99476118  0.94424145  0.97007421    -0.23900
H1387       H  0.54485056  0.47656391  0.81045903     0.05300
H1388       H  0.54702090  0.51650021  0.82756668     0.08500
H1389       H  0.50850784  0.49998472  0.81312665     0.08500
H1390       H  0.01650290  0.93913637  0.98614329     0.08500
H1391       H  0.98154767  0.92126068  0.96539628     0.08500
H1392       H  0.97856060  0.96037538  0.98517687     0.05300
C1393       C  0.46422911  0.74114389  0.86375571    -0.20500
C1394       C  0.49429058  0.75265324  0.85133157    -0.07100
C1395       C  0.51433136  0.73121052  0.83288589     0.13800
C1396       C  0.01343886  0.70528728  0.83876549    -0.20600
C1397       C  0.98350397  0.69315845  0.85128147    -0.07100
C1398       C  0.96157850  0.71540722  0.86612721     0.13700
C1399       C  0.92883173  0.70485726  0.87903145    -0.23900
H1400       H  0.44837750  0.75772362  0.87733540     0.15000
H1401       H  0.03066033  0.68891811  0.82698965     0.15100
C1402       C  0.54568433  0.74241814  0.81683127    -0.23900
H1403       H  0.91427789  0.72573659  0.88825813     0.05300
H1404       H  0.93155106  0.68777857  0.90119326     0.08500
H1405       H  0.91526724  0.69294166  0.85765799     0.08500
H1406       H  0.56284314  0.75002265  0.83744440     0.08500
H1407       H  0.54103850  0.76307562  0.79890465     0.08500
H1408       H  0.55749865  0.72286069  0.80168175     0.05300
C1409       C  0.82259065  0.97336495  0.52199862    -0.20500
C1410       C  0.83985650  0.99815127  0.53846491    -0.07100
C1411       C  0.86735410  0.51883335  0.51577230     0.13800
C1412       C  0.85531297  0.01943590  0.48130206    -0.20600
C1413       C  0.84036738  0.99322084  0.46508437    -0.07100
C1414       C  0.82230851  0.97083579  0.48549926     0.13700
C1415       C  0.80288618  0.94405213  0.46882500    -0.23900
H1416       H  0.80984315  0.95561936  0.53769468     0.15000
H1417       H  0.88420015  0.53152916  0.46448560     0.15100
C1418       C  0.89600360  0.53508634  0.53274877    -0.23900
H1419       H  0.78844783  0.93040525  0.48836876     0.05300
H1420       H  0.81890622  0.92640313  0.45570317     0.08500
H1421       H  0.78587513  0.95458505  0.44948676     0.08500
H1422       H  0.91002423  0.51682940  0.54765135     0.08500
H1423       H  0.88793317  0.55478271  0.55023625     0.08500
H1424       H  0.91259069  0.54613958  0.51330612     0.05300
C1425       C  0.50062989  0.01628235  0.64188878    -0.20500
C1426       C  0.51294969  0.98871882  0.62467911    -0.07100
C1427       C  0.99461022  0.98088407  0.60034638     0.13800
C1428       C  0.96266866  0.99159644  0.59565281    -0.20600
C1429       C  0.94932226  0.01634244  0.61637818    -0.07100
C1430       C  0.97393204  0.53064983  0.63363964     0.13700
C1431       C  0.46037766  0.55521662  0.64635141    -0.23900
H1432       H  0.51907276  0.52893839  0.65102845     0.15000
H1433       H  0.94697997  0.97844993  0.57800362     0.15100
C1434       C  0.00696778  0.95317871  0.57868786    -0.23900
H1435       H  0.47979205  0.56708318  0.66171600     0.05300
H1436       H  0.94367193  0.55311033  0.67240725     0.08500
H1437       H  0.95312884  0.57840343  0.63512379     0.08500
H1438       H  0.51309397  0.92539884  0.59334867     0.08500
H1439       H  0.52891946  0.95515083  0.56290510     0.08500
H1440       H  0.98889072  0.94535125  0.55903779     0.05300
C1441       C  0.71629630  0.95017843  0.64346421    -0.20500
C1442       C  0.69857073  0.96005892  0.67266571    -0.07100
C1443       C  0.71443630  0.97935583  0.69818513     0.13800
C1444       C  0.75531048  0.46889006  0.68509663    -0.20600
C1445       C  0.76336173  0.98162665  0.66241894    -0.07100
C1446       C  0.74837239  0.96067404  0.63806583     0.13700
C1447       C  0.76574069  0.95049939  0.60542659    -0.23900
H1448       H  0.70429503  0.93605988  0.62351525     0.15000
H1449       H  0.77218076  0.46301821  0.70576829     0.15100
C1450       C  0.71252226  0.43691058  0.71739811    -0.23900
H1451       H  0.75031282  0.93498793  0.58864800     0.05300
H1452       H  0.78774499  0.93646672  0.61223564     0.08500
H1453       H  0.77274195  0.97231595  0.59017310     0.08500
H1454       H  0.68810046  0.96683894  0.74468530     0.08500
H1455       H  0.69207828  0.44936278  0.73042119     0.08500
H1456       H  0.73227424  0.43373513  0.73670193     0.05300
C1457       C  0.95082162  0.53357440  0.76350213    -0.20500
C1458       C  0.94009109  0.56221422  0.77972241    -0.07100
C1459       C  0.90896863  0.57412212  0.77079646     0.13800
C1460       C  0.88957259  0.55719589  0.74691428    -0.20600
C1461       C  0.89998668  0.52865134  0.73044686    -0.07100
C1462       C  0.93133286  0.51682219  0.73888694     0.13700
C1463       C  0.93620286  0.98193324  0.73242854    -0.23900
H1464       H  0.97432005  0.52395161  0.77052267     0.15000
H1465       H  0.86608682  0.56707181  0.74022788     0.15100
C1466       C  0.89621480  0.60559890  0.78531857    -0.23900
H1467       H  0.95934849  0.97450707  0.74475953     0.05300
H1468       H  0.94030714  0.98362208  0.70393129     0.08500
H1469       H  0.91792448  0.96288572  0.73805234     0.08500
H1470       H  0.91407764  0.62530375  0.78082328     0.08500
H1471       H  0.89124181  0.60315511  0.81354090     0.08500
H1472       H  0.87317350  0.61295349  0.77270301     0.05300
loop_ 
_geom_bond_atom_site_label_1 
_geom_bond_atom_site_label_2 
_geom_bond_distance 
_geom_bond_site_symmetry_2 
_ccdc_geom_bond_type 
O1            V9   1.928       .  S
O1           C11   1.273   1_545  A
O2            V9   1.925       .  S
O2           C12   1.272       .  A
O3            V9   1.874       .  S
O3          C381   1.255   1_545  A
O4            V9   1.880       .  S
O4           C14   1.260       .  A
O5          V378   1.943       .  S
O5           C14   1.276   1_565  A
O6           V10   1.933       .  S
O6           C13   1.276       .  A
O7           V10   1.853       .  S
O7          C380   1.252       .  A
O8           V10   1.882       .  S
O8          C379   1.257       .  A
V9          V378   2.079   1_545  T
V10         O373   1.945       .  S
V10         V377   2.079       .  T
C11         O376   1.259       .  A
C11         C709   1.486       .  S
C12         O375   1.253   1_545  A
C12         C693   1.469       .  S
C13         O371   1.254       .  A
C13         C306   1.484       .  S
C14         C357   1.508       .  S
O15          V23   1.938       .  S
O15          C25   1.277       .  A
O16          V23   1.937       .  S
O16          C26   1.277       .  A
O17          V23   1.859       .  S
O17          C27   1.251       .  A
O18          V23   1.877       .  S
O18          C28   1.256       .  A
O19          V24   1.949       .  S
O19          C28   1.278       .  A
O20          V24   1.943       .  S
O20          C27   1.277       .  A
O21          V24   1.849       .  S
O21          C26   1.248       .  A
O22          V24   1.867       .  S
O22          C25   1.255       .  A
V23          V24   2.077       .  T
C25         C293   1.503       .  S
C26         C277   1.483   1_545  S
C27         C258   1.480       .  S
C28         C354   1.503       .  S
O29          V37   1.930       .  S
O29          C39   1.275       .  A
O30          V37   1.927       .  S
O30          C40   1.274       .  A
O31          V37   1.860       .  S
O31          C41   1.253       .  A
O32          V37   1.874       .  S
O32          C42   1.256       .  A
O33          V38   1.953       .  S
O33          C42   1.278       .  A
O34          V38   1.950       .  S
O34          C41   1.279       .  A
O35          V38   1.854       .  S
O35          C40   1.252       .  A
O36          V38   1.869       .  S
O36          C39   1.253       .  A
V37          V38   2.078       .  T
C39         C338   1.480       .  S
C40         C322   1.480       .  S
C41         C226   1.492       .  S
C42         C242   1.502       .  S
O43          V51   1.924       .  S
O43          C53   1.274       .  A
O44          V51   1.924       .  S
O44          C54   1.273       .  A
O45          V51   1.870       .  S
O45          C55   1.256       .  A
O46          V51   1.874       .  S
O46          C56   1.259       .  A
O47          V52   1.952   1_455  S
O47          C56   1.279       .  A
O48         V788   1.932       .  S
O48         C791   1.276       .  A
O49          V52   1.859   1_455  S
O49          C54   1.252       .  A
O50          V52   1.886       .  S
O50          C53   1.259   1_655  A
V51          V52   2.073   1_455  T
V52         O784   1.932       .  S
C53         C290   1.491   1_455  S
C54         C274   1.464       .  S
C55         O784   1.276   1_455  A
C55         C210   1.486       .  S
C56         C245   1.513       .  S
O57          V65   1.922       .  S
O57          C67   1.272       .  A
O58          V65   1.919       .  S
O58          C68   1.271       .  A
O59          V65   1.878       .  S
O59          C69   1.256       .  A
O60          V65   1.881       .  S
O60          C70   1.261       .  A
O61          V66   1.952       .  S
O61          C70   1.278       .  A
O62          V66   1.933   1_655  S
O62          C69   1.275   1_655  A
O63          V66   1.859       .  S
O63          C68   1.252       .  A
O64          V66   1.886   1_655  S
O64          C67   1.259   1_655  A
V65          V66   2.079       .  T
C67         C178   1.486       .  S
C68         C162   1.458       .  S
C69         C261   1.490       .  S
C70         C197   1.517       .  S
O71          V79   1.929       .  S
O71          C81   1.274   1_545  A
O72          V79   1.924       .  S
O72          C82   1.272       .  A
O73          V79   1.878       .  S
O73         C451   1.257   1_545  A
O74          V79   1.886       .  S
O74          C84   1.259       .  A
O75         V448   1.944       .  S
O75          C84   1.276   1_565  A
O76          V80   1.927       .  S
O76          C83   1.274       .  A
O77          V80   1.853       .  S
O77         C450   1.253       .  A
O78          V80   1.882       .  S
O78         C449   1.257       .  A
V79         V448   2.083   1_545  T
V80         O443   1.940       .  S
V80         V447   2.083       .  T
C81         O446   1.258       .  A
C81         C517   1.495       .  S
C82         O445   1.252   1_545  A
C82         C501   1.469       .  S
C83         O441   1.258       .  A
C83         C229   1.495       .  S
C84         C194   1.497       .  S
O85          V93   1.937       .  S
O85          C95   1.276       .  A
O86          V93   1.937       .  S
O86          C96   1.278       .  A
O87          V93   1.856       .  S
O87          C97   1.251       .  A
O88          V93   1.873       .  S
O88          C98   1.258       .  A
O89          V94   1.945       .  S
O89          C98   1.277       .  A
O90          V94   1.938       .  S
O90          C97   1.277       .  A
O91          V94   1.852       .  S
O91          C96   1.251       .  A
O92          V94   1.872       .  S
O92          C95   1.257       .  A
V93          V94   2.071       .  T
C95         C146   1.504       .  S
C96         C130   1.488       .  S
C97         C309   1.473       .  S
C98         C117   1.507       .  S
O99         V107   1.942       .  S
O99         C109   1.278       .  A
O100        V107   1.942       .  S
O100        C110   1.278       .  A
O101        V107   1.853       .  S
O101        C111   1.252       .  A
O102        V107   1.872       .  S
O102        C112   1.255       .  A
O103        V108   1.945       .  S
O103        C112   1.277       .  A
O104        V108   1.940       .  S
O104        C111   1.278       .  A
O105        V108   1.848       .  S
O105        C110   1.248       .  A
O106        V108   1.867       .  S
O106        C109   1.256       .  A
V107        V108   2.071       .  T
C109        C181   1.505       .  S
C110        C165   1.476       .  S
C111        C213   1.480       .  S
C112        C114   1.488       .  S
C113        C114   1.409       .  A
C113        C118   1.419       .  A
C113        H120   1.083       .  S
C114        C115   1.410       .  A
C115        C116   1.404       .  A
C115        C122   1.510       .  S
C116        C117   1.413       .  A
C116        H121   1.084       .  S
C117        C118   1.420       .  A
C118        C119   1.505       .  S
C119        H123   1.111       .  S
C119        H124   1.111       .  S
C119        H125   1.110       .  S
C122        H126   1.110       .  S
C122        H127   1.109       .  S
C122        H128   1.111       .  S
C129        C130   1.418       .  A
C129        C502   1.400       .  A
C129        H504   1.083       .  S
C130        C867   1.408       .  A
C131        C132   1.402   1_655  A
C131        C866   1.409       .  A
C131        C138   1.506       .  S
C132        C133   1.411       .  A
C132        H137   1.085       .  S
C133        C450   1.471       .  S
C133       C1238   1.403       .  A
C134        C497   1.404       .  A
C134       C1237   1.405   1_545  A
C134        C135   1.505       .  S
C135        H139   1.111       .  S
C135        H876   1.110       .  S
C135        H877   1.111       .  S
H136        C497   1.084       .  S
C138        H144   1.111       .  S
C138        H878   1.109       .  S
C138        H879   1.110       .  S
H140        C871   1.110       .  S
H141        C871   1.110       .  S
H142        C874   1.109       .  S
H143        C874   1.111       .  S
C145        C146   1.418       .  A
C145        C518   1.407       .  A
C145        H520   1.083       .  S
C146        C147   1.415       .  A
C147        C148   1.411       .  A
C147        C154   1.506       .  S
C148        C149   1.412       .  A
C148        H153   1.084       .  S
C149        C449   1.494       .  S
C149        C518   1.408       .  A
C150        C513   1.408       .  A
C150        C517   1.409       .  A
C150        C151   1.507   1_565  S
C151        H155   1.111       .  S
C151        H156   1.109       .  S
C151        H157   1.110       .  S
H152        C513   1.083   1_545  S
C154        H158   1.108       .  S
C154        H159   1.110       .  S
C154        H160   1.111       .  S
C161        C166   1.396       .  A
C161        C530   1.394       .  A
C161        H168   1.085       .  S
C162        C529   1.395   1_545  A
C162        C899   1.416   1_545  A
C163        C898   1.417       .  A
C163        C532   1.406       .  A
C163        C170   1.508       .  S
C164        C165   1.399       .  A
C164        C531   1.407       .  A
C164        H169   1.084       .  S
C165        C902   1.425       .  A
C166        C901   1.424       .  A
C166        C167   1.513       .  S
C167        H171   1.111       .  S
C167        H172   1.109       .  S
C167        H173   1.109       .  S
C170        H174   1.110       .  S
C170        H175   1.109   1_565  S
C170        H176   1.111       .  S
C177        C182   1.412       .  A
C177        C914   1.413       .  A
C177        H184   1.084       .  S
C178        C179   1.406       .  A
C178        C913   1.409   1_455  A
C179        C180   1.406       .  A
C179        C186   1.507       .  S
C180        C917   1.416   1_455  A
C180        H185   1.083       .  S
C181        C182   1.414       .  A
C181        C916   1.419       .  A
C182        C183   1.506       .  S
C183        H187   1.111       .  S
C183        H188   1.110       .  S
C183        H189   1.110       .  S
C186        H190   1.110       .  S
C186        H191   1.110       .  S
C186        H192   1.111       .  S
C193        C194   1.412       .  A
C193        C198   1.424       .  A
C193        H200   1.084       .  S
C194        C195   1.409       .  A
C195        C196   1.406       .  A
C195        C202   1.509       .  S
C196        C197   1.415       .  A
C196        H201   1.083       .  S
C197        C198   1.420       .  A
C198        C199   1.504       .  S
C199        H203   1.111   1_455  S
C199        H204   1.110   1_455  S
C199        H205   1.110   1_455  S
C202        H206   1.110       .  S
C202        H207   1.109       .  S
C202        H208   1.111       .  S
C209        C210   1.412   1_554  A
C209        C214   1.404       .  A
C209        H216   1.084   1_554  S
C210        C947   1.409   1_456  A
C211        C212   1.405   1_556  A
C211        C946   1.409       .  A
C211        C218   1.507       .  S
C212        C213   1.413       .  A
C212        H217   1.085       .  S
C213        C950   1.405       .  A
C214        C949   1.407       .  A
C214        C215   1.507       .  S
C215        H219   1.111       .  S
C215        H220   1.110       .  S
C215        H221   1.111       .  S
C218        H222   1.111       .  S
C218        H223   1.109       .  S
C218        H224   1.111       .  S
C225        C226   1.413       .  A
C225        C598   1.407       .  A
C225        H600   1.084       .  S
C226        C227   1.409       .  A
C227        C228   1.411       .  A
C227        C234   1.505       .  S
C228        C229   1.416       .  A
C228        H233   1.084       .  S
C229        C598   1.410       .  A
C230        C593   1.410       .  A
C230        C597   1.410       .  A
C230        C231   1.506       .  S
C231        H235   1.111       .  S
C231        H236   1.111       .  S
C231        H237   1.109       .  S
H232        C593   1.084       .  S
C234        H238   1.110       .  S
C234        H239   1.111       .  S
C234        H240   1.111       .  S
C241        C242   1.412       .  A
C241        C246   1.426       .  A
C241        H248   1.083       .  S
C242        C243   1.417       .  A
C243        C244   1.403       .  A
C243        C250   1.512       .  S
C244        C245   1.409       .  A
C244        H249   1.083       .  S
C245        C246   1.423       .  A
C246        C247   1.504   1_455  S
C247        H251   1.110       .  S
C247        H252   1.109   1_655  S
C247        H253   1.110       .  S
C250        H254   1.111       .  S
C250        H255   1.108       .  S
C250        H256   1.111       .  S
C257        C262   1.406   1_556  A
C257        C994   1.396       .  A
C257        H264   1.084       .  S
C258        C259   1.421       .  A
C258        C993   1.397       .  A
C259        C260   1.407   1_556  A
C259        C266   1.508       .  S
C260        C997   1.398       .  A
C260        H265   1.084       .  S
C261        C262   1.425       .  A
C261        C996   1.400   1_455  A
C262        C263   1.509       .  S
C263        H267   1.111       .  S
C263        H268   1.109       .  S
C263        H269   1.109       .  S
C266        H270   1.108       .  S
C266        H271   1.111       .  S
C266        H272   1.111       .  S
C273        C274   1.394       .  A
C273        C646   1.399       .  A
C273        H280   1.085       .  S
C274       C1011   1.417       .  A
C275        C276   1.409       .  A
C275       C1010   1.418       .  A
C275        C282   1.508       .  S
C276        C645   1.402       .  A
C276        H281   1.084       .  S
C277        C644   1.402       .  A
C277       C1014   1.429       .  A
C278        C641   1.395       .  A
C278       C1013   1.425   1_565  A
C278        C279   1.513   1_565  S
C279        H283   1.111   1_545  S
C279        H284   1.108       .  S
C279        H285   1.110       .  S
C282        H286   1.110       .  S
C282        H287   1.109       .  S
C282        H288   1.111       .  S
C289        C290   1.414       .  A
C289       C1030   1.414       .  A
C289        H296   1.083       .  S
C290        C291   1.406   1_655  A
C291       C1028   1.403       .  A
C291        C298   1.508       .  S
C292        C293   1.419       .  A
C292       C1027   1.406       .  A
C292        H297   1.083       .  S
C293        C294   1.415       .  A
C294       C1025   1.411       .  A
C294        C295   1.506       .  S
C295        H299   1.111       .  S
C295        H300   1.107       .  S
C295        H301   1.110       .  S
C298        H302   1.109       .  S
C298        H303   1.110       .  S
C298        H304   1.111       .  S
C305        C306   1.399       .  A
C305        C310   1.407       .  A
C305        H312   1.082       .  S
C306        C675   1.425       .  A
C307        C674   1.425   1_545  A
C307        C676   1.404       .  A
C307        C314   1.510       .  S
C308        C309   1.395       .  A
C308        C675   1.403       .  A
C308        H681   1.084       .  S
C309        C310   1.421       .  A
C310        C311   1.508       .  S
C311        H315   1.111       .  S
C311        H316   1.108       .  S
C311        H317   1.111       .  S
H313        C676   1.084       .  S
C314        H318   1.109       .  S
C314        H319   1.109       .  S
C314        H320   1.111       .  S
C321        C322   1.414       .  A
C321       C1430   1.398   1_455  A
C321        H696   1.083       .  S
C322       C1059   1.409   1_455  A
C323        C324   1.404       .  A
C323       C1058   1.409       .  A
C323        C330   1.506       .  S
C324        C325   1.412       .  A
C324        H329   1.085       .  S
C325        C380   1.469       .  S
C325        C694   1.404       .  A
C326       C1425   1.398       .  A
C326        C693   1.405       .  A
C326       C1063   1.508       .  S
C327       C1062   1.507       .  S
C327        H331   1.111       .  S
C327       H1068   1.109       .  S
C327       H1069   1.110       .  S
H328        C689   1.084       .  S
C330        H336   1.111       .  S
C330       H1070   1.110       .  S
C330       H1071   1.111       .  S
H332       C1063   1.109       .  S
H333       C1063   1.110       .  S
H334       C1066   1.110       .  S
H335       C1066   1.110       .  S
C337        C338   1.401       .  A
C337        C342   1.404       .  A
C337        H344   1.084       .  S
C338        C339   1.420       .  A
C339        C708   1.410       .  A
C339        C714   1.508       .  S
C340        C707   1.413       .  A
C340        C709   1.402       .  A
C340        H345   1.084       .  S
C341        C379   1.479       .  S
C341        C342   1.415       .  A
C341        C708   1.401       .  A
C342        C343   1.506       .  S
C343        H347   1.111       .  S
C343        H348   1.109       .  S
C343        H349   1.110       .  S
C346        C707   1.507       .  S
C346        H351   1.109       .  S
C346        H352   1.111       .  S
C346        H718   1.110       .  S
H350        C714   1.110       .  S
C353        C354   1.410       .  A
C353        C358   1.423       .  A
C353        H360   1.084       .  S
C354        C355   1.419       .  A
C355        C356   1.405       .  A
C355        C362   1.511       .  S
C356        C357   1.407       .  A
C356        H361   1.084       .  S
C357        C358   1.423       .  A
C358        C727   1.505   1_545  S
C359        C726   1.505       .  S
C359        H363   1.110       .  S
C359        H364   1.109       .  S
C359        H365   1.110       .  S
C362        H366   1.111       .  S
C362        H367   1.108       .  S
C362        H368   1.111       .  S
O369        V377   1.927       .  S
O369        C379   1.273       .  A
O370        V377   1.926       .  S
O370        C380   1.273       .  A
O371        V377   1.868       .  S
O372        V377   1.878       .  S
O372        C382   1.259       .  A
O373        C382   1.277       .  A
O374        V378   1.929       .  S
O374        C381   1.275       .  A
O375        V378   1.857       .  S
O376        V378   1.891       .  S
C381        C674   1.484       .  S
C382        C725   1.504       .  S
O383        V391   1.941       .  S
O383        C393   1.277       .  A
O384        V391   1.941       .  S
O384        C394   1.277       .  A
O385        V391   1.863       .  S
O385        C395   1.252       .  A
O386        V391   1.879       .  S
O386        C396   1.257       .  A
O387        V392   1.948       .  S
O387        C396   1.277       .  A
O388        V392   1.941       .  S
O388        C395   1.277       .  A
O389        V392   1.850       .  S
O389        C394   1.249       .  A
O390        V392   1.866       .  S
O390        C393   1.255       .  A
V391        V392   2.077       .  T
C393        C661   1.504       .  S
C394        C645   1.479       .  S
C395        C626   1.480       .  S
C396        C722   1.504       .  S
O397        V405   1.934       .  S
O397        C407   1.275       .  A
O398        V405   1.928       .  S
O398        C408   1.274       .  A
O399        V405   1.870       .  S
O399        C409   1.255       .  A
O400        V405   1.885       .  S
O400        C410   1.257       .  A
O401        V406   1.942       .  S
O401        C410   1.276       .  A
O402        V406   1.941   1_545  S
O402        C409   1.277   1_545  A
O403        V406   1.868   1_545  S
O403        C408   1.255   1_545  A
O404        V406   1.877       .  S
O404        C407   1.255       .  A
V405        V406   2.083       .  T
C407        C706   1.486       .  S
C408        C690   1.486       .  S
C409        C594   1.493       .  S
C410        C610   1.492       .  S
O411        V419   1.927       .  S
O411        C421   1.275       .  A
O412        V419   1.925       .  S
O412        C422   1.274       .  A
O413        V419   1.869       .  S
O413        C423   1.256       .  A
O414        V419   1.877       .  S
O414        C424   1.259       .  A
O415        V420   1.952   1_455  S
O415        C424   1.279       .  A
O416       V1156   1.931       .  S
O416       C1159   1.275       .  A
O417        V420   1.858       .  S
O417        C422   1.251   1_655  A
O418        V420   1.883       .  S
O418        C421   1.258   1_655  A
V419        V420   2.073   1_455  T
V420       O1152   1.932       .  S
C421        C658   1.493       .  S
C422        C642   1.463       .  S
C423       O1152   1.276   1_455  A
C423        C578   1.490       .  S
C424        C613   1.509       .  S
O425        V433   1.931       .  S
O425        C435   1.274       .  A
O426        V433   1.925       .  S
O426        C436   1.274       .  A
O427        V433   1.878       .  S
O427        C437   1.256       .  A
O428        V433   1.877       .  S
O428        C438   1.259       .  A
O429        V434   1.952       .  S
O429        C438   1.279       .  A
O430        V434   1.937       .  S
O430        C437   1.277       .  A
O431        V434   1.855       .  S
O431        C436   1.250       .  A
O432        V434   1.878       .  S
O432        C435   1.257       .  A
V433        V434   2.078       .  T
C435        C546   1.484       .  S
C436        C530   1.464       .  S
C437        C629   1.491       .  S
C438        C565   1.508       .  S
O439        V447   1.932       .  S
O439        C449   1.275       .  A
O440        V447   1.925       .  S
O440        C450   1.272       .  A
O441        V447   1.884       .  S
O442        V447   1.890       .  S
O442        C452   1.260       .  A
O443        C452   1.274       .  A
O444        V448   1.933       .  S
O444        C451   1.275       .  A
O445        V448   1.853       .  S
O446        V448   1.881       .  S
C451        C597   1.497       .  S
C452        C562   1.494       .  S
O453        V461   1.927       .  S
O453        C463   1.273       .  A
O454        V461   1.924       .  S
O454        C464   1.274       .  A
O455        V461   1.864       .  S
O455        C465   1.253       .  A
O456        V461   1.883       .  S
O456        C466   1.260       .  A
O457        V462   1.943       .  S
O457        C466   1.277       .  A
O458        V462   1.934       .  S
O458        C465   1.275       .  A
O459        V462   1.859       .  S
O459        C464   1.253       .  A
O460        V462   1.878       .  S
O460        C463   1.258       .  A
V461        V462   2.077       .  T
C463        C514   1.502       .  S
C464        C498   1.482       .  S
C465        C677   1.478       .  S
C466        C485   1.514       .  S
O467        V475   1.936       .  S
O467        C477   1.277       .  A
O468        V475   1.937       .  S
O468        C478   1.277       .  A
O469        V475   1.861       .  S
O469        C479   1.254       .  A
O470        V475   1.879       .  S
O470        C480   1.256       .  A
O471        V476   1.945       .  S
O471        C480   1.277       .  A
O472        V476   1.944       .  S
O472        C479   1.279       .  A
O473        V476   1.850       .  S
O473        C478   1.248       .  A
O474        V476   1.865       .  S
O474        C477   1.254       .  A
V475        V476   2.073       .  T
C477        C549   1.496       .  S
C478        C533   1.470       .  S
C479        C581   1.491       .  S
C480        C482   1.490       .  S
C481        C482   1.409       .  A
C481        C486   1.418       .  A
C481        H488   1.083       .  S
C482        C483   1.407       .  A
C483        C484   1.409       .  A
C483        C490   1.507       .  S
C484        C485   1.417       .  A
C484        H489   1.083       .  S
C485        C486   1.420       .  A
C486        C487   1.505       .  S
C487        H491   1.111       .  S
C487        H492   1.110       .  S
C487        H493   1.110       .  S
C490        H494   1.110       .  S
C490        H495   1.110       .  S
C490        H496   1.111       .  S
C497        C498   1.417   1_545  A
C498       C1235   1.406       .  A
C499       C1234   1.409       .  A
C499        C500   1.403   1_655  A
C499        C506   1.506       .  S
C500        C501   1.411   1_565  A
C500        H505   1.085       .  S
C501        C870   1.402       .  A
C502        C869   1.404       .  A
C502        C503   1.508       .  S
C503        H507   1.111       .  S
C503       H1244   1.108       .  S
C503       H1245   1.110       .  S
C506       H1246   1.109       .  S
C506       H1247   1.110       .  S
C506        H512   1.111       .  S
H508       C1239   1.108       .  S
H509       C1239   1.110       .  S
H510       C1242   1.110       .  S
H511       C1242   1.110       .  S
C513        C514   1.416       .  A
C514        C515   1.415       .  A
C515        C516   1.409       .  A
C515        C522   1.507       .  S
C516        C517   1.412       .  A
C516        H521   1.084       .  S
C518        C519   1.507       .  S
C519        H523   1.111       .  S
C519        H524   1.109       .  S
C519        H525   1.110       .  S
C522        H526   1.109       .  S
C522        H527   1.110       .  S
C522        H528   1.111       .  S
C529        C534   1.395       .  A
C529        H536   1.085   1_565  S
C530       C1267   1.420       .  A
C531       C1266   1.419       .  A
C531        C538   1.508       .  S
C532        C533   1.399       .  A
C532        H537   1.084       .  S
C533       C1270   1.422       .  A
C534       C1269   1.422       .  A
C534        C535   1.512       .  S
C535        H539   1.111       .  S
C535        H540   1.109       .  S
C535        H541   1.111       .  S
C538        H542   1.110       .  S
C538        H543   1.108       .  S
C538        H544   1.111       .  S
C545       C1282   1.407       .  A
C545        C550   1.408       .  A
C545        H552   1.084       .  S
C546       C1281   1.406   1_455  A
C546        C547   1.406       .  A
C547        C548   1.409       .  A
C547        C554   1.506       .  S
C548       C1285   1.416   1_455  A
C548        H553   1.083       .  S
C549       C1284   1.417       .  A
C549        C550   1.416       .  A
C550        C551   1.507       .  S
C551        H555   1.111       .  S
C551        H556   1.110       .  S
C551        H557   1.110       .  S
C554        H558   1.110       .  S
C554        H559   1.111       .  S
C554        H560   1.111       .  S
C561        C562   1.413       .  A
C561        C566   1.422       .  A
C561        H568   1.083       .  S
C562        C563   1.407       .  A
C563        C564   1.407       .  A
C563        C570   1.506       .  S
C564        C565   1.414       .  A
C564        H569   1.084       .  S
C565        C566   1.415       .  A
C566        C567   1.503   1_455  S
C567        H571   1.111       .  S
C567        H572   1.110       .  S
C567        H573   1.110       .  S
C570        H574   1.110       .  S
C570        H575   1.109       .  S
C570        H576   1.111       .  S
C577        C578   1.415   1_554  A
C577        C582   1.404       .  A
C577        H584   1.083   1_554  S
C578       C1315   1.409   1_456  A
C579       C1314   1.411   1_554  A
C579        C580   1.407       .  A
C579        C586   1.507   1_554  S
C580        C581   1.414       .  A
C580        H585   1.084       .  S
C581       C1318   1.407       .  A
C582       C1317   1.406       .  A
C582        C583   1.507       .  S
C583        H587   1.111       .  S
C583        H588   1.110       .  S
C583        H589   1.111       .  S
C586        H590   1.111       .  S
C586        H591   1.109       .  S
C586        H592   1.111   1_556  S
C593        C594   1.414       .  A
C594        C595   1.409   1_565  A
C595        C596   1.408       .  A
C595        C602   1.506       .  S
C596        C597   1.415   1_545  A
C596        H601   1.084       .  S
C598        C599   1.507       .  S
C599        H603   1.111       .  S
C599        H604   1.111       .  S
C599        H605   1.109       .  S
C602        H606   1.110       .  S
C602        H607   1.111       .  S
C602        H608   1.111       .  S
C609        C610   1.413       .  A
C609        C614   1.420       .  A
C609        H616   1.084       .  S
C610        C611   1.406       .  A
C611        C612   1.407       .  A
C611        C618   1.507       .  S
C612        C613   1.415       .  A
C612        H617   1.084       .  S
C613        C614   1.414       .  A
C614        C615   1.503   1_455  S
C615        H619   1.110       .  S
C615        H620   1.110       .  S
C615        H621   1.110       .  S
C618        H622   1.110       .  S
C618        H623   1.110       .  S
C618        H624   1.111       .  S
C625       C1362   1.397       .  A
C625        C630   1.407   1_556  A
C625        H632   1.084       .  S
C626       C1361   1.397       .  A
C626        C627   1.421       .  A
C627        C628   1.410   1_556  A
C627        C634   1.508       .  S
C628       C1365   1.400       .  A
C628        H633   1.084       .  S
C629       C1364   1.400       .  A
C629        C630   1.425       .  A
C630        C631   1.509       .  S
C631        H635   1.111       .  S
C631        H636   1.108       .  S
C631        H637   1.109       .  S
C634        H638   1.108       .  S
C634        H639   1.111       .  S
C634        H640   1.111       .  S
C641        C642   1.393       .  A
C641        H648   1.084       .  S
C642       C1379   1.418       .  A
C643       C1378   1.417       .  A
C643        C644   1.406       .  A
C643        C650   1.508       .  S
C644        H649   1.084       .  S
C645       C1382   1.424       .  A
C646       C1381   1.428       .  A
C646        C647   1.513       .  S
C647        H651   1.111       .  S
C647        H652   1.109       .  S
C647        H653   1.111       .  S
C650        H654   1.110       .  S
C650        H655   1.108       .  S
C650        H656   1.111       .  S
C657        C658   1.414   1_655  A
C657       C1398   1.413       .  A
C657        H664   1.083       .  S
C658        C659   1.407       .  A
C659       C1396   1.404       .  A
C659        C666   1.508       .  S
C660       C1395   1.405       .  A
C660        C661   1.418       .  A
C660        H665   1.083       .  S
C661        C662   1.414       .  A
C662       C1393   1.413       .  A
C662        C663   1.506       .  S
C663        H667   1.111       .  S
C663        H668   1.109       .  S
C663        H669   1.111       .  S
C666        H670   1.109       .  S
C666        H671   1.110       .  S
C666        H672   1.111       .  S
C673        C674   1.399       .  A
C673        C678   1.407       .  A
C673        H680   1.083       .  S
C675        C682   1.511       .  S
C676        C677   1.396   1_545  A
C677        C678   1.421       .  A
C678        C679   1.509       .  S
C679        H683   1.111       .  S
C679        H684   1.108       .  S
C679        H685   1.111       .  S
C682        H686   1.110       .  S
C682        H687   1.109       .  S
C682        H688   1.111       .  S
C689        C690   1.413   1_545  A
C689       C1062   1.403   1_455  A
C690       C1427   1.410   1_455  A
C691       C1426   1.408       .  A
C691        C692   1.404       .  A
C691        C698   1.505       .  S
C692        C693   1.411   1_565  A
C692        H697   1.085       .  S
C694       C1057   1.397       .  A
C694       C1431   1.508       .  S
C695       C1430   1.508       .  S
C695        H699   1.111       .  S
C695       H1436   1.109       .  S
C695       H1437   1.110       .  S
C698       H1438   1.109       .  S
C698       H1439   1.111       .  S
C698        H704   1.111       .  S
H700       C1431   1.109       .  S
H701       C1431   1.110       .  S
H702       C1434   1.109       .  S
H703       C1434   1.111       .  S
C705        C706   1.402       .  A
C705        C710   1.407       .  A
C705        H712   1.085       .  S
C706        C707   1.420       .  A
C708        H713   1.084       .  S
C709        C710   1.416       .  A
C710        C711   1.506       .  S
C711        H715   1.111       .  S
C711        H716   1.110       .  S
C711        H717   1.110       .  S
C714        H719   1.108       .  S
C714        H720   1.111       .  S
C721        C722   1.410       .  A
C721        C726   1.422       .  A
C721        H728   1.082       .  S
C722        C723   1.421       .  A
C723        C724   1.405       .  A
C723        C730   1.511       .  S
C724        C725   1.405       .  A
C724        H729   1.084       .  S
C725        C726   1.421       .  A
C727        H731   1.111       .  S
C727        H732   1.110       .  S
C727        H733   1.110       .  S
C730        H734   1.111       .  S
C730        H735   1.109       .  S
C730        H736   1.111       .  S
O737        V745   1.934       .  S
O737        C747   1.275   1_545  A
O738        V745   1.936       .  S
O738        C748   1.275       .  A
O739        V745   1.868       .  S
O739       C1117   1.253   1_545  A
O740        V745   1.874       .  S
O740        C750   1.258       .  A
O741       V1114   1.947       .  S
O741        C750   1.278   1_565  A
O742        V746   1.938       .  S
O742        C749   1.277       .  A
O743        V746   1.851       .  S
O743       C1116   1.252       .  A
O744        V746   1.886       .  S
O744       C1115   1.258       .  A
V745       V1114   2.078   1_545  T
V746       O1109   1.946       .  S
V746       V1113   2.075       .  T
C747       O1112   1.257       .  A
C747       C1445   1.488       .  S
C748       O1111   1.252   1_545  A
C748       C1429   1.475       .  S
C749       O1107   1.253       .  A
C749       C1042   1.483       .  S
C750       C1093   1.511       .  S
O751        V759   1.946       .  S
O751        C761   1.278       .  A
O752        V759   1.943       .  S
O752        C762   1.278       .  A
O753        V759   1.862       .  S
O753        C763   1.252   1_655  A
O754        V759   1.881       .  S
O754        C764   1.258       .  A
O755        V760   1.946   1_655  S
O755        C764   1.277       .  A
O756        V760   1.942       .  S
O756        C763   1.278       .  A
O757        V760   1.843       .  S
O757        C762   1.247   1_455  A
O758        V760   1.860   1_655  S
O758        C761   1.254       .  A
V759        V760   2.072   1_655  T
C761       C1029   1.503       .  S
C762       C1013   1.476   1_655  S
C763        C994   1.481       .  S
C764       C1090   1.499       .  S
O765        V773   1.932       .  S
O765        C775   1.274       .  A
O766        V773   1.931       .  S
O766        C776   1.275       .  A
O767        V773   1.863       .  S
O767        C777   1.253       .  A
O768        V773   1.881       .  S
O768        C778   1.258       .  A
O769        V774   1.945       .  S
O769        C778   1.276       .  A
O770        V774   1.942       .  S
O770        C777   1.277       .  A
O771        V774   1.852       .  S
O771        C776   1.252       .  A
O772        V774   1.872       .  S
O772        C775   1.254       .  A
V773        V774   2.080       .  T
C775       C1074   1.477       .  S
C776       C1058   1.483       .  S
C777        C962   1.483       .  S
C778        C978   1.497       .  S
O779        V787   1.929       .  S
O779        C789   1.274       .  A
O780        V787   1.928       .  S
O780        C790   1.274       .  A
O781        V787   1.866       .  S
O781        C791   1.255       .  A
O782        V787   1.870       .  S
O782        C792   1.258       .  A
O783        V788   1.954       .  S
O783        C792   1.279       .  A
O785        V788   1.859       .  S
O785        C790   1.251       .  A
O786        V788   1.881       .  S
O786        C789   1.258       .  A
V787        V788   2.071       .  T
C789       C1026   1.487       .  S
C790       C1010   1.464       .  S
C791        C946   1.489       .  S
C792        C981   1.515       .  S
O793        V801   1.931       .  S
O793        C803   1.275       .  A
O794        V801   1.927       .  S
O794        C804   1.273       .  A
O795        V801   1.877       .  S
O795        C805   1.255       .  A
O796        V801   1.880       .  S
O796        C806   1.260       .  A
O797        V802   1.953       .  S
O797        C806   1.279       .  A
O798        V802   1.934       .  S
O798        C805   1.277       .  A
O799        V802   1.856       .  S
O799        C804   1.251       .  A
O800        V802   1.881       .  S
O800        C803   1.258       .  A
V801        V802   2.074       .  T
C803        C914   1.493       .  S
C804        C898   1.461   1_545  S
C805        C997   1.489       .  S
C806        C933   1.513       .  S
O807        V815   1.941       .  S
O807        C817   1.278   1_545  A
O808        V815   1.938       .  S
O808        C818   1.276   1_545  A
O809        V815   1.870       .  S
O809       C1187   1.255   1_545  A
O810        V815   1.884       .  S
O810        C820   1.257   1_545  A
O811       V1184   1.945       .  S
O811        C820   1.277       .  A
O812        V816   1.931       .  S
O812        C819   1.275       .  A
O813        V816   1.855       .  S
O813       C1186   1.253       .  A
O814        V816   1.877       .  S
O814       C1185   1.257       .  A
V815       V1184   2.081   1_545  T
V816       O1179   1.941       .  S
V816       V1183   2.082       .  T
C817       O1182   1.254       .  A
C817       C1253   1.501       .  S
C818       O1181   1.250       .  A
C818       C1237   1.484       .  S
C819       O1177   1.257       .  A
C819        C965   1.489       .  S
C820        C930   1.495   1_565  S
O821        V829   1.932       .  S
O821        C831   1.275       .  A
O822        V829   1.933       .  S
O822        C832   1.276       .  A
O823        V829   1.858       .  S
O823        C833   1.251       .  A
O824        V829   1.875       .  S
O824        C834   1.258       .  A
O825        V830   1.946       .  S
O825        C834   1.278       .  A
O826        V830   1.938       .  S
O826        C833   1.276       .  A
O827        V830   1.853       .  S
O827        C832   1.251       .  A
O828        V830   1.874       .  S
O828        C831   1.257       .  A
V829        V830   2.076       .  T
C831        C882   1.502       .  S
C832        C866   1.486       .  S
C833       C1045   1.472       .  S
C834        C853   1.509       .  S
O835        V843   1.935       .  S
O835        C845   1.276       .  A
O836        V843   1.936       .  S
O836        C846   1.276   1_655  A
O837        V843   1.861       .  S
O837        C847   1.253   1_655  A
O838        V843   1.876       .  S
O838        C848   1.256       .  A
O839        V844   1.942       .  S
O839        C848   1.276   1_455  A
O840        V844   1.936       .  S
O840        C847   1.276       .  A
O841        V844   1.850       .  S
O841        C846   1.248       .  A
O842        V844   1.870       .  S
O842        C845   1.256   1_455  A
V843        V844   2.077   1_655  T
C845        C917   1.500       .  S
C846        C901   1.475       .  S
C847        C949   1.480       .  S
C848        C850   1.488       .  S
C849        C850   1.409       .  A
C849        C854   1.419       .  A
C849        H856   1.083       .  S
C850        C851   1.409       .  A
C851        C852   1.405       .  A
C851        C858   1.509       .  S
C852        C853   1.413       .  A
C852        H857   1.084       .  S
C853        C854   1.420       .  A
C854        C855   1.505       .  S
C855        H859   1.111       .  S
C855        H860   1.111       .  S
C855        H861   1.110       .  S
C858        H862   1.110       .  S
C858        H863   1.109       .  S
C858        H864   1.111       .  S
C865        C866   1.418       .  A
C865       C1238   1.399   1_655  A
C865       H1240   1.083       .  S
C867        C868   1.404       .  A
C867        C874   1.506       .  S
C868        C869   1.413       .  A
C868        H873   1.084       .  S
C869       C1186   1.476       .  S
C870       C1233   1.398   1_455  A
C870        C871   1.508       .  S
C871        H875   1.111       .  S
H872       C1233   1.083       .  S
C874        H880   1.111       .  S
C881        C882   1.418       .  A
C881       C1254   1.408       .  A
C881       H1256   1.083       .  S
C882        C883   1.415       .  A
C883        C884   1.409       .  A
C883        C890   1.507       .  S
C884        C885   1.412       .  A
C884        H889   1.084       .  S
C885       C1185   1.493       .  S
C885       C1254   1.407       .  A
C886       C1249   1.409   1_545  A
C886       C1253   1.409   1_545  A
C886        C887   1.506       .  S
C887        H891   1.111       .  S
C887        H892   1.110       .  S
C887        H893   1.110       .  S
H888       C1249   1.084   1_545  S
C890        H894   1.108       .  S
C890        H895   1.110       .  S
C890        H896   1.111       .  S
C897       C1266   1.394       .  A
C897        C902   1.397       .  A
C897        H904   1.085       .  S
C898       C1265   1.396       .  A
C899       C1268   1.405       .  A
C899        C906   1.508   1_565  S
C900       C1267   1.405       .  A
C900        C901   1.399       .  A
C900        H905   1.084   1_455  S
C902        C903   1.513       .  S
C903        H907   1.111       .  S
C903        H908   1.109       .  S
C903        H909   1.108       .  S
C906        H910   1.110       .  S
C906        H911   1.109   1_455  S
C906        H912   1.110   1_445  S
C913        C918   1.411       .  A
C913        H920   1.084       .  S
C914        C915   1.407       .  A
C915        C916   1.406       .  A
C915        C922   1.507       .  S
C916        H921   1.083       .  S
C917        C918   1.416       .  A
C918        C919   1.506       .  S
C919        H923   1.111       .  S
C919        H924   1.110       .  S
C919        H925   1.110       .  S
C922        H926   1.110       .  S
C922        H927   1.110       .  S
C922        H928   1.111       .  S
C929        C930   1.413       .  A
C929        C934   1.422       .  A
C929        H936   1.084       .  S
C930        C931   1.407       .  A
C931        C932   1.408       .  A
C931        C938   1.507       .  S
C932        C933   1.415       .  A
C932        H937   1.084       .  S
C933        C934   1.416       .  A
C934        C935   1.503       .  S
C935        H939   1.111       .  S
C935        H940   1.110       .  S
C935        H941   1.110       .  S
C938        H942   1.110   1_545  S
C938        H943   1.110       .  S
C938        H944   1.111       .  S
C945        C946   1.416   1_554  A
C945        C950   1.404       .  A
C945        H952   1.084   1_554  S
C947        C948   1.407       .  A
C947        C954   1.506   1_554  S
C948        C949   1.412   1_655  A
C948        H953   1.085       .  S
C950        C951   1.506       .  S
C951        H955   1.111       .  S
C951        H956   1.110       .  S
C951        H957   1.110       .  S
C954        H958   1.111       .  S
C954        H959   1.109       .  S
C954        H960   1.111   1_556  S
C961        C962   1.412       .  A
C961       C1334   1.408       .  A
C961       H1336   1.084       .  S
C962        C963   1.407       .  A
C963        C964   1.407       .  A
C963        C970   1.506       .  S
C964        C965   1.413       .  A
C964        H969   1.084       .  S
C965       C1334   1.409       .  A
C966       C1329   1.409       .  A
C966       C1333   1.409       .  A
C966        C967   1.506       .  S
C967        H971   1.111       .  S
C967        H972   1.110       .  S
C967        H973   1.109       .  S
H968       C1329   1.084       .  S
C970        H974   1.110       .  S
C970        H975   1.111       .  S
C970        H976   1.111       .  S
C977        C978   1.411       .  A
C977        C982   1.425       .  A
C977        H984   1.084       .  S
C978        C979   1.411       .  A
C979        C980   1.403       .  A
C979        C986   1.511       .  S
C980        C981   1.413       .  A
C980        H985   1.083       .  S
C981        C982   1.422       .  A
C982        C983   1.504       .  S
C983        H987   1.110       .  S
C983        H988   1.110       .  S
C983        H989   1.110       .  S
C986        H990   1.110       .  S
C986        H991   1.109       .  S
C986        H992   1.111       .  S
C993        C998   1.407   1_556  A
C993       H1000   1.084       .  S
C994        C995   1.422   1_455  A
C995        C996   1.409   1_556  A
C995       C1002   1.509       .  S
C996       H1001   1.084       .  S
C997        C998   1.425       .  A
C998        C999   1.509       .  S
C999       H1003   1.111       .  S
C999       H1004   1.110       .  S
C999       H1005   1.109       .  S
C1002      H1006   1.108       .  S
C1002      H1007   1.111       .  S
C1002      H1008   1.111       .  S
C1009      C1010   1.394       .  A
C1009      C1382   1.396       .  A
C1009      H1016   1.086       .  S
C1011      C1012   1.403       .  A
C1011      C1018   1.506   1_455  S
C1012      C1381   1.400       .  A
C1012      H1017   1.084   1_455  S
C1013      C1380   1.401   1_445  A
C1014      C1377   1.396       .  A
C1014      C1015   1.513       .  S
C1015      H1019   1.111       .  S
C1015      H1020   1.109   1_565  S
C1015      H1021   1.111   1_565  S
C1018      H1022   1.110   1_655  S
C1018      H1023   1.110       .  S
C1018      H1024   1.110   1_655  S
C1025      C1026   1.410       .  A
C1025      H1032   1.084       .  S
C1026      C1027   1.405       .  A
C1027      C1034   1.507       .  S
C1028      C1029   1.418   1_455  A
C1028      H1033   1.082       .  S
C1029      C1030   1.414       .  A
C1030      C1031   1.505       .  S
C1031      H1035   1.111       .  S
C1031      H1036   1.109       .  S
C1031      H1037   1.110       .  S
C1034      H1038   1.110       .  S
C1034      H1039   1.111       .  S
C1034      H1040   1.111       .  S
C1041      C1042   1.400       .  A
C1041      C1046   1.411       .  A
C1041      H1048   1.084       .  S
C1042      C1411   1.423       .  A
C1043      C1410   1.427   1_545  A
C1043      C1412   1.403       .  A
C1043      C1050   1.511       .  S
C1044      C1411   1.402       .  A
C1044      C1045   1.395       .  A
C1044      H1417   1.085       .  S
C1045      C1046   1.419       .  A
C1046      C1047   1.506       .  S
C1047      H1051   1.111       .  S
C1047      H1052   1.108       .  S
C1047      H1053   1.111       .  S
H1049      C1412   1.084       .  S
C1050      H1054   1.110       .  S
C1050      H1055   1.109       .  S
C1050      H1056   1.111       .  S
C1057      C1058   1.414       .  A
C1057      H1432   1.084       .  S
C1059      C1060   1.402       .  A
C1059      C1066   1.507   1_655  S
C1060      C1061   1.411       .  A
C1060      H1065   1.084       .  S
C1061      C1116   1.468       .  S
C1061      C1430   1.404       .  A
C1062      C1429   1.407       .  A
C1063      H1067   1.111       .  S
H1064      C1425   1.084       .  S
C1066      H1072   1.111   1_455  S
C1073      C1074   1.404       .  A
C1073      C1078   1.404       .  A
C1073      H1080   1.085       .  S
C1074      C1075   1.409       .  A
C1075      C1444   1.413       .  A
C1075      C1450   1.504       .  S
C1076      C1443   1.411       .  A
C1076      C1445   1.399       .  A
C1076      H1081   1.084   1_565  S
C1077      C1115   1.488       .  S
C1077      C1444   1.411       .  A
C1077      C1078   1.414       .  A
C1078      C1079   1.508       .  S
C1079      H1083   1.111       .  S
C1079      H1084   1.110       .  S
C1079      H1085   1.110       .  S
C1082      C1443   1.509       .  S
C1082      H1454   1.110       .  S
C1082      H1087   1.108   1_565  S
C1082      H1088   1.111   1_565  S
H1086      C1450   1.110       .  S
C1089      C1090   1.409       .  A
C1089      C1094   1.422       .  A
C1089      H1096   1.083       .  S
C1090      C1091   1.415       .  A
C1091      C1092   1.405       .  A
C1091      C1098   1.511       .  S
C1092      C1093   1.411       .  A
C1092      H1097   1.084       .  S
C1093      C1094   1.422       .  A
C1094      C1463   1.504   1_545  S
C1095      C1462   1.505       .  S
C1095      H1099   1.110       .  S
C1095      H1100   1.109       .  S
C1095      H1101   1.110       .  S
C1098      H1102   1.111       .  S
C1098      H1103   1.108       .  S
C1098      H1104   1.111       .  S
O1105      V1113   1.927       .  S
O1105      C1115   1.274       .  A
O1106      V1113   1.926       .  S
O1106      C1116   1.273       .  A
O1107      V1113   1.868       .  S
O1108      V1113   1.879       .  S
O1108      C1118   1.260       .  A
O1109      C1118   1.277       .  A
O1110      V1114   1.934       .  S
O1110      C1117   1.276       .  A
O1111      V1114   1.855       .  S
O1112      V1114   1.886       .  S
C1117      C1410   1.485       .  S
C1118      C1461   1.508       .  S
O1119      V1127   1.942       .  S
O1119      C1129   1.277       .  A
O1120      V1127   1.939       .  S
O1120      C1130   1.278   1_655  A
O1121      V1127   1.861       .  S
O1121      C1131   1.251   1_655  A
O1122      V1127   1.880       .  S
O1122      C1132   1.257       .  A
O1123      V1128   1.950   1_655  S
O1123      C1132   1.278       .  A
O1124      V1128   1.946       .  S
O1124      C1131   1.278       .  A
O1125      V1128   1.848       .  S
O1125      C1130   1.248       .  A
O1126      V1128   1.865       .  S
O1126      C1129   1.255   1_455  A
V1127      V1128   2.075   1_655  T
C1129      C1397   1.503       .  S
C1130      C1381   1.480       .  S
C1131      C1362   1.480       .  S
C1132      C1458   1.504       .  S
O1133      V1141   1.942       .  S
O1133      C1143   1.278       .  A
O1134      V1141   1.936       .  S
O1134      C1144   1.277       .  A
O1135      V1141   1.862       .  S
O1135      C1145   1.253       .  A
O1136      V1141   1.883       .  S
O1136      C1146   1.256       .  A
O1137      V1142   1.950       .  S
O1137      C1146   1.279       .  A
O1138      V1142   1.947   1_545  S
O1138      C1145   1.279   1_545  A
O1139      V1142   1.853   1_545  S
O1139      C1144   1.251   1_545  A
O1140      V1142   1.866       .  S
O1140      C1143   1.252       .  A
V1141      V1142   2.079       .  T
C1143      C1442   1.492       .  S
C1144      C1426   1.481       .  S
C1145      C1330   1.493       .  S
C1146      C1346   1.497       .  S
O1147      V1155   1.926       .  S
O1147      C1157   1.274       .  A
O1148      V1155   1.920       .  S
O1148      C1158   1.272       .  A
O1149      V1155   1.877       .  S
O1149      C1159   1.257       .  A
O1150      V1155   1.885       .  S
O1150      C1160   1.261       .  A
O1151      V1156   1.950       .  S
O1151      C1160   1.278       .  A
O1153      V1156   1.860       .  S
O1153      C1158   1.252       .  A
O1154      V1156   1.886       .  S
O1154      C1157   1.259       .  A
V1155      V1156   2.078       .  T
C1157      C1394   1.492       .  S
C1158      C1378   1.464       .  S
C1159      C1314   1.497       .  S
C1160      C1349   1.513       .  S
O1161      V1169   1.932       .  S
O1161      C1171   1.275       .  A
O1162      V1169   1.927       .  S
O1162      C1172   1.274       .  A
O1163      V1169   1.876       .  S
O1163      C1173   1.255       .  A
O1164      V1169   1.878       .  S
O1164      C1174   1.259       .  A
O1165      V1170   1.951       .  S
O1165      C1174   1.279       .  A
O1166      V1170   1.935       .  S
O1166      C1173   1.276       .  A
O1167      V1170   1.855       .  S
O1167      C1172   1.250       .  A
O1168      V1170   1.875       .  S
O1168      C1171   1.256       .  A
V1169      V1170   2.079       .  T
C1171      C1282   1.482       .  S
C1172      C1266   1.464       .  S
C1173      C1365   1.489       .  S
C1174      C1301   1.508       .  S
O1175      V1183   1.934       .  S
O1175      C1185   1.275       .  A
O1176      V1183   1.929       .  S
O1176      C1186   1.274       .  A
O1177      V1183   1.878       .  S
O1178      V1183   1.886       .  S
O1178      C1188   1.258       .  A
O1179      C1188   1.275       .  A
O1180      V1184   1.940       .  S
O1180      C1187   1.277       .  A
O1181      V1184   1.842       .  S
O1182      V1184   1.869       .  S
C1187      C1333   1.498       .  S
C1188      C1298   1.493       .  S
O1189      V1197   1.934       .  S
O1189      C1199   1.276       .  A
O1190      V1197   1.932       .  S
O1190      C1200   1.276       .  A
O1191      V1197   1.859       .  S
O1191      C1201   1.252       .  A
O1192      V1197   1.881       .  S
O1192      C1202   1.259       .  A
O1193      V1198   1.943       .  S
O1193      C1202   1.277       .  A
O1194      V1198   1.935   1_545  S
O1194      C1201   1.276   1_545  A
O1195      V1198   1.853       .  S
O1195      C1200   1.252       .  A
O1196      V1198   1.871       .  S
O1196      C1199   1.256       .  A
V1197      V1198   2.072       .  T
C1199      C1250   1.502       .  S
C1200      C1234   1.484       .  S
C1201      C1413   1.475       .  S
C1202      C1221   1.506       .  S
O1203      V1211   1.930       .  S
O1203      C1213   1.275       .  A
O1204      V1211   1.930       .  S
O1204      C1214   1.274   1_655  A
O1205      V1211   1.861       .  S
O1205      C1215   1.253   1_655  A
O1206      V1211   1.877       .  S
O1206      C1216   1.256       .  A
O1207      V1212   1.942       .  S
O1207      C1216   1.276   1_455  A
O1208      V1212   1.937       .  S
O1208      C1215   1.276       .  A
O1209      V1212   1.853       .  S
O1209      C1214   1.250       .  A
O1210      V1212   1.871       .  S
O1210      C1213   1.256   1_455  A
V1211      V1212   2.079   1_655  T
C1213      C1285   1.496       .  S
C1214      C1269   1.470       .  S
C1215      C1317   1.482       .  S
C1216      C1218   1.488       .  S
C1217      C1218   1.411       .  A
C1217      C1222   1.414       .  A
C1217      H1224   1.084       .  S
C1218      C1219   1.405       .  A
C1219      C1220   1.410       .  A
C1219      C1226   1.505       .  S
C1220      C1221   1.418       .  A
C1220      H1225   1.083       .  S
C1221      C1222   1.414       .  A
C1222      C1223   1.505       .  S
C1223      H1227   1.111       .  S
C1223      H1228   1.110       .  S
C1223      H1229   1.110       .  S
C1226      H1230   1.110   1_655  S
C1226      H1231   1.110       .  S
C1226      H1232   1.111       .  S
C1233      C1234   1.417   1_545  A
C1235      C1236   1.397       .  A
C1235      C1242   1.508       .  S
C1236      C1237   1.415       .  A
C1236      H1241   1.084       .  S
C1238      C1239   1.508       .  S
C1239      H1243   1.111   1_455  S
C1242      H1248   1.111       .  S
C1249      C1250   1.418       .  A
C1250      C1251   1.411       .  A
C1251      C1252   1.409       .  A
C1251      C1258   1.507       .  S
C1252      C1253   1.417       .  A
C1252      H1257   1.084       .  S
C1254      C1255   1.506       .  S
C1255      H1259   1.111       .  S
C1255      H1260   1.109       .  S
C1255      H1261   1.110       .  S
C1258      H1262   1.110       .  S
C1258      H1263   1.110       .  S
C1258      H1264   1.111       .  S
C1265      C1270   1.397       .  A
C1265      H1272   1.085       .  S
C1267      C1274   1.509   1_455  S
C1268      C1269   1.400       .  A
C1268      H1273   1.084   1_455  S
C1270      C1271   1.512       .  S
C1271      H1275   1.111       .  S
C1271      H1276   1.108       .  S
C1271      H1277   1.108       .  S
C1274      H1278   1.109   1_655  S
C1274      H1279   1.108       .  S
C1274      H1280   1.111       .  S
C1281      C1286   1.407       .  A
C1281      H1288   1.084       .  S
C1282      C1283   1.405       .  A
C1283      C1284   1.407       .  A
C1283      C1290   1.506       .  S
C1284      H1289   1.083       .  S
C1285      C1286   1.416       .  A
C1286      C1287   1.507       .  S
C1287      H1291   1.111       .  S
C1287      H1292   1.109       .  S
C1287      H1293   1.110       .  S
C1290      H1294   1.110       .  S
C1290      H1295   1.110       .  S
C1290      H1296   1.111       .  S
C1297      C1298   1.412       .  A
C1297      C1302   1.420       .  A
C1297      H1304   1.082       .  S
C1298      C1299   1.407       .  A
C1299      C1300   1.408       .  A
C1299      C1306   1.507       .  S
C1300      C1301   1.415       .  A
C1300      H1305   1.084       .  S
C1301      C1302   1.414       .  A
C1302      C1303   1.504       .  S
C1303      H1307   1.111       .  S
C1303      H1308   1.110       .  S
C1303      H1309   1.111       .  S
C1306      H1310   1.110       .  S
C1306      H1311   1.110       .  S
C1306      H1312   1.111       .  S
C1313      C1314   1.417   1_554  A
C1313      C1318   1.408       .  A
C1313      H1320   1.083   1_554  S
C1315      C1316   1.406       .  A
C1315      C1322   1.506   1_554  S
C1316      C1317   1.413   1_655  A
C1316      H1321   1.083       .  S
C1318      C1319   1.506       .  S
C1319      H1323   1.111       .  S
C1319      H1324   1.110       .  S
C1319      H1325   1.110       .  S
C1322      H1326   1.111       .  S
C1322      H1327   1.109       .  S
C1322      H1328   1.111   1_556  S
C1329      C1330   1.415       .  A
C1330      C1331   1.407   1_565  A
C1331      C1332   1.408       .  A
C1331      C1338   1.506       .  S
C1332      C1333   1.418   1_545  A
C1332      H1337   1.084       .  S
C1334      C1335   1.506       .  S
C1335      H1339   1.111       .  S
C1335      H1340   1.111       .  S
C1335      H1341   1.109       .  S
C1338      H1342   1.110       .  S
C1338      H1343   1.111       .  S
C1338      H1344   1.111       .  S
C1345      C1346   1.414       .  A
C1345      C1350   1.422       .  A
C1345      H1352   1.084       .  S
C1346      C1347   1.408       .  A
C1347      C1348   1.411       .  A
C1347      C1354   1.507       .  S
C1348      C1349   1.415       .  A
C1348      H1353   1.083       .  S
C1349      C1350   1.415       .  A
C1350      C1351   1.504       .  S
C1351      H1355   1.111       .  S
C1351      H1356   1.110       .  S
C1351      H1357   1.110       .  S
C1354      H1358   1.110       .  S
C1354      H1359   1.111       .  S
C1354      H1360   1.111       .  S
C1361      C1366   1.406   1_556  A
C1361      H1368   1.084       .  S
C1362      C1363   1.421       .  A
C1363      C1364   1.411   1_556  A
C1363      C1370   1.508   1_455  S
C1364      H1369   1.084   1_455  S
C1365      C1366   1.425       .  A
C1366      C1367   1.509       .  S
C1367      H1371   1.111   1_554  S
C1367      H1372   1.109       .  S
C1367      H1373   1.109       .  S
C1370      H1374   1.108       .  S
C1370      H1375   1.111       .  S
C1370      H1376   1.111       .  S
C1377      C1378   1.392       .  A
C1377      H1384   1.085       .  S
C1379      C1380   1.408   1_455  A
C1379      C1386   1.508   1_455  S
C1380      H1385   1.084   1_565  S
C1382      C1383   1.513       .  S
C1383      H1387   1.110       .  S
C1383      H1388   1.108       .  S
C1383      H1389   1.110       .  S
C1386      H1390   1.110   1_655  S
C1386      H1391   1.109       .  S
C1386      H1392   1.111       .  S
C1393      C1394   1.413       .  A
C1393      H1400   1.084       .  S
C1394      C1395   1.407       .  A
C1395      C1402   1.507       .  S
C1396      C1397   1.418   1_455  A
C1396      H1401   1.083       .  S
C1397      C1398   1.413       .  A
C1398      C1399   1.505       .  S
C1399      H1403   1.111       .  S
C1399      H1404   1.109       .  S
C1399      H1405   1.110       .  S
C1402      H1406   1.109       .  S
C1402      H1407   1.110       .  S
C1402      H1408   1.111       .  S
C1409      C1410   1.399       .  A
C1409      C1414   1.407       .  A
C1409      H1416   1.083       .  S
C1411      C1418   1.510       .  S
C1412      C1413   1.394   1_545  A
C1413      C1414   1.421       .  A
C1414      C1415   1.510       .  S
C1415      H1419   1.111       .  S
C1415      H1420   1.108       .  S
C1415      H1421   1.111       .  S
C1418      H1422   1.108       .  S
C1418      H1423   1.108       .  S
C1418      H1424   1.111       .  S
C1425      C1426   1.413   1_545  A
C1427      C1428   1.405       .  A
C1427      C1434   1.507   1_655  S
C1428      C1429   1.411   1_565  A
C1428      H1433   1.085       .  S
C1431      H1435   1.111       .  S
C1434      H1440   1.111   1_455  S
C1441      C1442   1.403       .  A
C1441      C1446   1.410       .  A
C1441      H1448   1.084       .  S
C1442      C1443   1.425       .  A
C1444      H1449   1.084       .  S
C1445      C1446   1.418       .  A
C1446      C1447   1.507       .  S
C1447      H1451   1.111       .  S
C1447      H1452   1.110       .  S
C1447      H1453   1.110       .  S
C1450      H1455   1.110       .  S
C1450      H1456   1.111       .  S
C1457      C1458   1.410       .  A
C1457      C1462   1.423       .  A
C1457      H1464   1.084       .  S
C1458      C1459   1.419       .  A
C1459      C1460   1.406       .  A
C1459      C1466   1.511       .  S
C1460      C1461   1.407       .  A
C1460      H1465   1.084       .  S
C1461      C1462   1.422       .  A
C1463      H1467   1.111       .  S
C1463      H1468   1.110       .  S
C1463      H1469   1.110       .  S
C1466      H1470   1.111       .  S
C1466      H1471   1.108       .  S
C1466      H1472   1.111       .  S
