geometry optimzed in LAMMPS
_audit_creation_date              2020-12-01 
_audit_creation_method            'lammps2cif' 
_symmetry_space_group_name_H-M    'P1' 
_symmetry_Int_Tables_number       1 
_symmetry_cell_setting            triclinic 
loop_ 
_symmetry_equiv_pos_as_xyz 
  x,y,z 
_cell_length_a                    29.80563799 
_cell_length_b                    30.02752677134497 
_cell_length_c                    29.944955250874546 
_cell_angle_alpha                 89.88178852620949 
_cell_angle_beta                  90.61242478719335 
_cell_angle_gamma                 90.11965661789247 
loop_ 
_atom_site_label 
_atom_site_type_symbol 
_atom_site_fract_x 
_atom_site_fract_y 
_atom_site_fract_z 
_atom_site_charge 
C1          C  0.71771106  0.33571436  0.26706166     0.79100
N2          N  0.73834766  0.31626438  0.30318558    -0.79200
C3          C  0.72115001  0.27863355  0.32247188     0.81600
N4          N  0.68260439  0.26066513  0.30492897    -0.79100
C5          C  0.66140264  0.27969361  0.26896931     0.81700
N6          N  0.67941055  0.31702571  0.25044098    -0.80800
C7          C  0.72148801  0.78449887  0.26828412     0.79100
N8          N  0.74238815  0.80235904  0.30522713    -0.79200
C9          C  0.72548543  0.83921354  0.32603198     0.81600
N10         N  0.68718853  0.85798091  0.30933724    -0.79100
C11         C  0.66558555  0.84106570  0.27281952     0.81700
N12         N  0.68310554  0.80428969  0.25247679    -0.80800
C13         C  0.20869875  0.84196701  0.27572675     0.79100
N14         N  0.18979037  0.80418558  0.25813926    -0.79200
C15         C  0.15373714  0.78410969  0.27793611     0.81600
N16         N  0.13669554  0.80258476  0.31582766    -0.79100
C17         C  0.15502945  0.84022371  0.33403937     0.81700
N18         N  0.19092949  0.85944443  0.31364057    -0.80800
C19         C  0.22241030  0.83335531  0.84125110     0.79100
N20         N  0.20198263  0.85191734  0.80470905    -0.79200
C21         C  0.16426781  0.83345033  0.78607921     0.81600
N22         N  0.14695309  0.79556050  0.80489176    -0.79100
C23         C  0.16697048  0.77628708  0.84154054     0.81700
N24         N  0.20455742  0.79562746  0.85921935    -0.80800
C25         C  0.73131896  0.27117140  0.77634153     0.79100
N26         N  0.75008709  0.30841753  0.79470579    -0.79200
C27         C  0.73357648  0.32685389  0.83271304     0.81600
N28         N  0.69749268  0.30715493  0.85265718    -0.79100
C29         C  0.67803306  0.26970510  0.83502510     0.81700
N30         N  0.69529034  0.25214162  0.79679599    -0.80800
C31         C  0.72416451  0.83995809  0.77887727     0.79100
N32         N  0.68717041  0.85644890  0.79997819    -0.79200
C33         C  0.66990717  0.83576784  0.83697878     0.81600
N34         N  0.69059162  0.79814508  0.85275312    -0.79100
C35         C  0.72776587  0.78116742  0.83247455     0.81700
N36         N  0.74400225  0.80242579  0.79568739    -0.80800
C37         C  0.22337712  0.27046218  0.83789045     0.79100
N38         N  0.20487519  0.30607742  0.85940345    -0.79200
C39         C  0.16583335  0.32502980  0.84427185     0.81600
N40         N  0.14533441  0.30754864  0.80707573    -0.79100
C41         C  0.16321173  0.27192283  0.78525937     0.81700
N42         N  0.20214546  0.25389714  0.80107779    -0.80800
C43         C  0.21595934  0.27895893  0.27657862     0.79100
N44         N  0.19565659  0.31658218  0.26067438    -0.79200
C45         C  0.15992343  0.33505166  0.28193300     0.81600
N46         N  0.14441961  0.31511958  0.31972156    -0.79100
C47         C  0.16412279  0.27759576  0.33667642     0.81700
N48         N  0.19992034  0.25977984  0.31478387    -0.80800
O49         O  0.01110647  0.12046366  0.55736516    -0.56500
O50         O  0.84710329  0.21021472  0.49360488    -0.64400
C51         C  0.81156590  0.19305009  0.47666410     0.96400
O52         O  0.15072805  0.01860581  0.56620435    -0.69600
O53         O  0.06908541  0.05638752  0.60999904    -0.67500
C54         C  0.71956170  0.05832396  0.53622721     0.88500
O55         O  0.91002649  0.26398132  0.54628066    -0.69700
C56         C  0.80751673  0.19432790  0.61373105     0.96100
C57         C  0.94945477  0.28032214  0.54719221     0.89000
Ti58       Ti  0.89242132  0.19487399  0.54880558     1.51200
Ti59       Ti  0.99547862  0.92193944  0.56098378     1.51300
O60         O  0.94191887  0.18225210  0.60074303    -0.63600
O61         O  0.82159100  0.05786939  0.50050832    -0.67600
C62         C  0.07736048  0.92196527  0.63170361     0.96500
O63         O  0.87786177  0.99288373  0.55497849    -0.56600
C64         C  0.81125775  0.92274489  0.48368628     0.96200
Ti65       Ti  0.80684771  0.11144086  0.54630994     1.51000
Ti66       Ti  0.99723091  0.19032318  0.55585585     1.53000
Ti67       Ti  0.08216645  0.10757687  0.56113391     1.49300
O68         O  0.78874109  0.96155539  0.60359147    -0.63300
O69         O  0.74020356  0.02206043  0.54281967    -0.69600
O70         O  0.98448653  0.25754864  0.55330175    -0.69700
O71         O  0.87712963  0.12514399  0.55079839    -0.56500
O72         O  0.07292394  0.05524656  0.51296727    -0.67500
O73         O  0.04328697  0.90552929  0.51038950    -0.64400
O74         O  0.94693953  0.18010652  0.50411936    -0.63600
O75         O  0.84140729  0.90899484  0.60684973    -0.64900
O76         O  0.97958737  0.85410450  0.56103142    -0.69700
O77         O  0.84349087  0.21145432  0.59846153    -0.64400
O78         O  0.01081827  0.99151782  0.56015250    -0.56500
C79         C  0.94200620  0.83433748  0.56093776     0.89000
O80         O  0.81551206  0.06069258  0.59703341    -0.67500
O81         O  0.04156826  0.20637619  0.61112430    -0.65000
O82         O  0.04110305  0.90600797  0.61533924    -0.64400
C83         C  0.07725543  0.19011058  0.62822537     0.96300
C84         C  0.80533433  0.92631608  0.62122088     0.96300
C85         C  0.17093332  0.05580874  0.56929692     0.88300
O86         O  0.09544623  0.95698571  0.61575992    -0.63700
O87         O  0.79432817  0.15752129  0.49235148    -0.63700
C88         C  0.07924344  0.92189982  0.49461640     0.96000
Ti89       Ti  0.08166770  0.00398032  0.56262898     1.51000
O90         O  0.84592397  0.90559465  0.50194561    -0.65000
O91         O  0.78967862  0.15936795  0.59694217    -0.63700
O92         O  0.10058660  0.15375574  0.50871479    -0.63300
O93         O  0.90458641  0.85420929  0.55965557    -0.69900
O94         O  0.04678859  0.20488774  0.50638839    -0.64900
O95         O  0.15104103  0.09306952  0.56674251    -0.69400
O96         O  0.79437723  0.95881546  0.49810002    -0.63200
Ti97       Ti  0.89075762  0.92267455  0.55663229     1.53200
O98         O  0.09531491  0.15510086  0.61287882    -0.63300
O99         O  0.94478751  0.93289501  0.51034646    -0.63600
O100        O  0.09750085  0.95679624  0.51091393    -0.63700
C101        C  0.08332841  0.18889197  0.49195746     0.96400
O102        O  0.73752423  0.09654638  0.53957033    -0.69700
Ti103      Ti  0.80768539  0.00702351  0.54995191     1.49500
O104        O  0.94169800  0.93448307  0.60717322    -0.63600
O105        O  0.43774049  0.99381761  0.12559907    -0.56500
O106        O  0.48815316  0.16188471  0.20179640    -0.64400
C107        C  0.50205137  0.19874616  0.18616808     0.96400
O108        O  0.44353516  0.85076690  0.03010936    -0.69600
O109        O  0.39296303  0.93188349  0.05905897    -0.67500
C110        C  0.43631845  0.28026119  0.04083713     0.88500
O111        O  0.43322363  0.10524421  0.25614667    -0.69700
C112        C  0.36574345  0.19653744  0.17991164     0.96100
C113        C  0.43029603  0.07010558  0.27916583     0.89000
Ti114      Ti  0.43578134  0.11513571  0.18745191     1.51200
Ti115      Ti  0.44872953  0.99874593  0.92526783     1.51300
O116        O  0.38702683  0.06236838  0.17771106    -0.63600
O117        O  0.49105724  0.18322710  0.05463917    -0.67600
C118        C  0.37905668  0.91767775  0.92645609     0.96500
O119        O  0.44888902  0.11867444  0.98585364    -0.56600
C120        C  0.52231938  0.18415750  0.91984119     0.96200
Ti121      Ti  0.43683100  0.19650904  0.10052822     1.51000
Ti122      Ti  0.43504595  0.01095528  0.19510688     1.53000
Ti123      Ti  0.43801152  0.92354409  0.11503625     1.49300
O124        O  0.39981057  0.20032580  0.94578302    -0.63300
O125        O  0.44459655  0.25667457  0.00702829    -0.69600
O126        O  0.43078053  0.03104169  0.26272174    -0.69700
O127        O  0.43832317  0.12654817  0.11720512    -0.56500
O128        O  0.49028094  0.93192293  0.06624433    -0.67500
O129        O  0.49983824  0.95029765  0.91422131    -0.64400
O130        O  0.48424513  0.06225972  0.18226864    -0.63600
O131        O  0.40229835  0.14873630  0.89269219    -0.64900
O132        O  0.45323047  0.00795804  0.85768155    -0.69700
O133        O  0.38385878  0.16290301  0.19854749    -0.64400
O134        O  0.44545972  0.98805671  0.99546668    -0.56500
C135        C  0.46394235  0.04087426  0.83394011     0.89000
O136        O  0.39416274  0.17974753  0.04447990    -0.67500
O137        O  0.38175121  0.96408494  0.21062652    -0.65000
O138        O  0.39490010  0.95335675  0.90983826    -0.64400
C139        C  0.36556503  0.92848330  0.19346182     0.96300
C140        C  0.38525319  0.18386396  0.90952019     0.96300
C141        C  0.44179708  0.83284908  0.06848405     0.88300
O142        O  0.39514653  0.90047651  0.96204871    -0.63700
O143        O  0.48464119  0.21658038  0.15138737    -0.63700
C144        C  0.51617812  0.91533261  0.93169561     0.96000
Ti145      Ti  0.44502393  0.91811338  0.01142552     1.51000
O146        O  0.50742217  0.14793708  0.90300087    -0.65000
O147        O  0.37985323  0.21200714  0.14277690    -0.63700
O148        O  0.48727469  0.91071779  0.16523889    -0.63300
O149        O  0.46252496  0.08099606  0.84793552    -0.69900
O150        O  0.48818262  0.96491167  0.21586640    -0.64900
O151        O  0.43938139  0.85452666  0.10457327    -0.69400
O152        O  0.50426504  0.20220112  0.95382868    -0.63200
Ti153      Ti  0.45338730  0.10193657  0.91598763     1.53200
O154        O  0.38248719  0.91075518  0.15887675    -0.63300
O155        O  0.49915952  0.04975846  0.93577372    -0.63600
O156        O  0.50050070  0.89936090  0.96794164    -0.63700
C157        C  0.50384103  0.92861899  0.20002312     0.96400
O158        O  0.43394867  0.26491610  0.08043838    -0.69700
Ti159      Ti  0.44782881  0.18863408  0.99701284     1.49500
O160        O  0.40195492  0.05266980  0.92802801    -0.63600
O161        O  0.88507997  0.55482482  0.98056914    -0.56500
O162        O  0.78124603  0.50787249  0.14289367    -0.64400
C163        C  0.79741108  0.49173848  0.17927805     0.96400
O164        O  0.99763965  0.55051816  0.85497409    -0.69600
O165        O  0.95387422  0.60151550  0.92685688    -0.67500
C166        C  0.92686436  0.55858704  0.27864524     0.88500
O167        O  0.73359317  0.56136837  0.07192397    -0.69700
C168        C  0.79979710  0.62782410  0.17822359     0.96100
C169        C  0.72055096  0.56130765  0.03115747     0.89000
Ti170      Ti  0.80214633  0.55910367  0.09557417     1.51200
Ti171      Ti  0.08376855  0.55230674  0.01265491     1.51300
O172        O  0.82121605  0.60544405  0.04338165    -0.63600
O173        O  0.93413579  0.50908904  0.17992245    -0.67600
C174        C  0.08818122  0.61894772  0.92889560     0.96500
O175        O  0.00424830  0.55599093  0.12546513    -0.56600
C176        C  0.06899303  0.48898020  0.20036480     0.96200
Ti177      Ti  0.88148872  0.55795575  0.18607031     1.51000
Ti178      Ti  0.81472338  0.55582502  0.99123827     1.53000
Ti179      Ti  0.90172013  0.55458985  0.91012788     1.49300
O180        O  0.03322773  0.60950737  0.21289684    -0.63300
O181        O  0.96589352  0.55902416  0.26195047    -0.69600
O182        O  0.74684697  0.55726625  0.99887143    -0.69700
O183        O  0.87173106  0.55769841  0.11546290    -0.56500
O184        O  0.95083002  0.50456730  0.92772287    -0.67500
O185        O  0.10241199  0.49808996  0.96807841    -0.64400
O186        O  0.81897112  0.50914904  0.04607387    -0.63600
O187        O  0.08827432  0.60814098  0.16312804    -0.64900
O188        O  0.15137907  0.55257985  0.03401270    -0.69700
O189        O  0.78420189  0.61312551  0.14098383    -0.64400
O190        O  0.01378876  0.55229963  0.99382166    -0.56500
C191        C  0.16782551  0.55253284  0.07331879     0.89000
O192        O  0.93518688  0.60573149  0.17874253    -0.67500
O193        O  0.80288524  0.60690237  0.94254942    -0.65000
O194        O  0.10374440  0.60401192  0.96584460    -0.64400
C195        C  0.82004934  0.62373571  0.90769317     0.96300
C196        C  0.06987140  0.62491311  0.19738569     0.96300
C197        C  0.96475572  0.55368703  0.82840028     0.88300
O198        O  0.05361693  0.60210059  0.91054693    -0.63700
O199        O  0.83303700  0.50694243  0.19733994    -0.63700
C200        C  0.08607746  0.48153560  0.93209527     0.96000
Ti201      Ti  0.00514536  0.55132125  0.92304584     1.51000
O202        O  0.08706243  0.50458966  0.16547491    -0.65000
O203        O  0.83389419  0.61028313  0.19725556    -0.63700
O204        O  0.85376984  0.50331045  0.89156349    -0.63300
O205        O  0.14470745  0.55317466  0.10838972    -0.69900
O206        O  0.80222447  0.50247655  0.94505122    -0.64900
O207        O  0.92392713  0.55456968  0.84127470    -0.69400
O208        O  0.03225386  0.50453278  0.21534207    -0.63200
Ti209      Ti  0.07530286  0.55503322  0.11659388     1.53200
O210        O  0.85621392  0.60837674  0.89107848    -0.63300
O211        O  0.06758535  0.50541425  0.06492979    -0.63600
O212        O  0.05144018  0.49792071  0.91324108    -0.63700
C213        C  0.81876101  0.48667735  0.90941508     0.96400
O214        O  0.89099417  0.55751390  0.25563321    -0.69700
Ti215      Ti  0.98623046  0.55717652  0.19483571     1.49500
O216        O  0.06879692  0.60202630  0.06232032    -0.63600
N217        N  0.98717391  0.50049703  0.51478754    -0.37700
N218        N  0.94695503  0.58288399  0.53270766    -0.58300
N219        N  0.00075196  0.58909172  0.61072046    -0.37700
N220        N  0.05163406  0.50642481  0.59248246    -0.58300
C221        C  0.97376945  0.51361664  0.47378568     0.25900
C222        C  0.02203000  0.47287522  0.50920184     0.25900
C223        C  0.99278354  0.63221620  0.60166435     0.25900
C224        C  0.03806085  0.58766136  0.63613209     0.25900
C225        C  0.92197623  0.57214038  0.49692361     0.34500
C226        C  0.93036558  0.62093049  0.54862292     0.34500
C227        C  0.05191109  0.46252284  0.58384542     0.34500
C228        C  0.05737590  0.50999909  0.63697923     0.34500
C229        C  0.00018037  0.49340505  0.44167558    -0.23000
C230        C  0.03070614  0.46730838  0.46431554    -0.23000
C231        C  0.02538655  0.65861803  0.62211323    -0.23000
C232        C  0.05403058  0.63012524  0.64432822    -0.23000
C233        C  0.88816803  0.60314746  0.49022410    -0.24000
C234        C  0.89356316  0.63442339  0.52326998    -0.24000
C235        C  0.06089753  0.43823761  0.62233923    -0.24000
C236        C  0.06415682  0.46866874  0.65641421    -0.24000
C237        C  0.93734609  0.54216864  0.46509082    -0.19400
C238        C  0.03688326  0.44481458  0.54311382    -0.19400
C239        C  0.04985908  0.54971885  0.65995242    -0.19400
C240        C  0.95524113  0.64783914  0.57770420    -0.19400
H241        H  0.99712997  0.49626367  0.40573457     0.13500
H242        H  0.05520767  0.44548421  0.44949022     0.13500
H243        H  0.02744964  0.69460552  0.62235873     0.13500
H244        H  0.08210718  0.63956952  0.66547621     0.13500
H245        H  0.86486012  0.60508947  0.46231767     0.11800
H246        H  0.87510511  0.66528483  0.52597821     0.11800
H247        H  0.06183902  0.40236232  0.62582440     0.11800
H248        H  0.06828851  0.46124486  0.69160355     0.11800
H249        H  0.97160443  0.50697633  0.54513165     0.25100
H250        H  0.98021983  0.56184456  0.60335942     0.25100
N251        N  0.49411552  0.01839441  0.50737062    -0.37700
N252        N  0.50606501  0.96218693  0.58814160    -0.58300
N253        N  0.42671496  0.01412213  0.61849091    -0.37700
N254        N  0.41467598  0.05939859  0.53736753    -0.58300
C255        C  0.52305273  0.98560452  0.49790317     0.25900
C256        C  0.47477936  0.03082526  0.46859284     0.25900
C257        C  0.43543130  0.98140509  0.64772138     0.25900
C258        C  0.38224976  0.02157641  0.61955939     0.25900
C259        C  0.54726674  0.95890362  0.57067491     0.34500
C260        C  0.51234878  0.96126669  0.63271286     0.34500
C261        C  0.41858245  0.08202687  0.49914138     0.34500
C262        C  0.38031085  0.07724797  0.55936520     0.34500
C263        C  0.52347287  0.97748035  0.45256424    -0.23000
C264        C  0.49247997  0.00591381  0.43381382    -0.23000
C265        C  0.39679813  0.96868491  0.66941724    -0.23000
C266        C  0.36261509  0.99354300  0.65079899    -0.23000
C267        C  0.57930734  0.95241855  0.60405070    -0.24000
C268        C  0.55700283  0.95458679  0.64376881    -0.24000
C269        C  0.38671744  0.11543438  0.49647433    -0.24000
C270        C  0.36203090  0.11223395  0.53486063    -0.24000
C271        C  0.55697952  0.97346370  0.52733097    -0.19400
C272        C  0.44386517  0.06597971  0.46384043    -0.19400
C273        C  0.35981671  0.05465217  0.59465618    -0.19400
C274        C  0.47867177  0.97239053  0.66254544    -0.19400
H275        H  0.54560496  0.95533417  0.43480070     0.13500
H276        H  0.48533108  0.00909996  0.39845143     0.13500
H277        H  0.39412029  0.94548955  0.69697952     0.13500
H278        H  0.32781288  0.99271271  0.66071655     0.13500
H279        H  0.61535362  0.95095921  0.60017688     0.11800
H280        H  0.57213684  0.95403570  0.67677357     0.11800
H281        H  0.37993829  0.13740843  0.46851705     0.11800
H282        H  0.33245544  0.13151903  0.54226979     0.11800
H283        H  0.49126067  0.03392479  0.53832739     0.25100
H284        H  0.45120092  0.03236429  0.60184009     0.25100
N285        N  0.47900305  0.51332329  0.95004818    -0.37700
N286        N  0.49682694  0.59476366  0.00514300    -0.58300
N287        N  0.41858138  0.58369637  0.05540939    -0.37700
N288        N  0.40146333  0.50153583  0.01273576    -0.58300
C289        C  0.52382821  0.51858947  0.94835586     0.25900
C290        C  0.47126003  0.46910025  0.95041803     0.25900
C291        C  0.43810371  0.61735237  0.07754597     0.25900
C292        C  0.38659203  0.56697442  0.08167336     0.25900
C293        C  0.52271853  0.59671759  0.96893224     0.34500
C294        C  0.49122617  0.63680031  0.01893316     0.34500
C295        C  0.39526091  0.47649302  0.97619138     0.34500
C296        C  0.36051943  0.51174748  0.02758556     0.34500
C297        C  0.54464614  0.47760051  0.94394372    -0.23000
C298        C  0.51114432  0.44608425  0.94497792    -0.23000
C299        C  0.41843545  0.62238528  0.11898273    -0.23000
C300        C  0.38556839  0.59009211  0.12166701    -0.23000
C301        C  0.53583382  0.64024674  0.96074062    -0.24000
C302        C  0.51503017  0.66604775  0.99220373    -0.24000
C303        C  0.35004293  0.46881792  0.96858499    -0.24000
C304        C  0.32767693  0.49190289  0.00106637    -0.24000
C305        C  0.54597033  0.55923665  0.95546445    -0.19400
C306        C  0.42978223  0.44981346  0.96123022    -0.19400
C307        C  0.35365609  0.53788523  0.06564194    -0.19400
C308        C  0.46637215  0.64788765  0.05675740    -0.21500
H309        H  0.58030916  0.47106721  0.94257975     0.13500
H310        H  0.51581522  0.41034432  0.94470537     0.13500
H311        H  0.42520464  0.64821458  0.14330465     0.13500
H312        H  0.36175287  0.58599870  0.14840579     0.13500
H313        H  0.55968229  0.65171766  0.93625508     0.11800
H314        H  0.51849845  0.70172089  0.99612482     0.11800
H315        H  0.33502427  0.44743234  0.94351038     0.11800
H316        H  0.29167157  0.49316007  0.00515643     0.11800
H317        H  0.45527542  0.53841879  0.95441198     0.25100
H318        H  0.42245866  0.57668012  0.02169977     0.25100
C319        C  0.28285619  0.51231595  0.09918984    -0.14400
C320        C  0.30779798  0.54602945  0.07882854     0.07700
C321        C  0.28689502  0.58408606  0.06138075    -0.14400
C322        C  0.24064894  0.58673174  0.06074209    -0.14400
C323        C  0.21561190  0.55187723  0.07859890     0.07700
C324        C  0.23640751  0.51555152  0.09956939    -0.14400
H325        H  0.29908634  0.48256414  0.11190286     0.11700
H326        H  0.30625191  0.60984555  0.04497839     0.11700
H327        H  0.22436027  0.61498599  0.04493213     0.11700
H328        H  0.21668533  0.48864986  0.11352167     0.11700
C329        C  0.63937774  0.54406951  0.03910863    -0.14400
C330        C  0.67397833  0.56624882  0.01730555     0.07700
C331        C  0.66604360  0.58627221  0.97529182    -0.14400
C332        C  0.62524671  0.58136592  0.95367695    -0.14400
C333        C  0.59119237  0.55786333  0.97448036     0.07700
C334        C  0.59778360  0.54018671  0.01776534    -0.14400
H335        H  0.64504221  0.52824110  0.07120391     0.11700
H336        H  0.69241610  0.60392883  0.95801047     0.11700
H337        H  0.61999571  0.59635631  0.92110342     0.11700
H338        H  0.57059746  0.52352684  0.03482918     0.11700
C339        C  0.89477250  0.52895292  0.34821055    -0.14400
C340        C  0.92332900  0.55908389  0.32662234     0.07700
C341        C  0.95130247  0.58751557  0.35114438    -0.14400
C342        C  0.95259516  0.58426152  0.39716328    -0.14400
C343        C  0.92677254  0.55180613  0.41857557     0.07700
C344        C  0.89698525  0.52484359  0.39445242    -0.14400
H345        H  0.87311198  0.50683860  0.32918614     0.11700
H346        H  0.97316013  0.61107721  0.33457330     0.11700
H347        H  0.97592541  0.60486977  0.41596829     0.11700
H348        H  0.87738920  0.49947643  0.41111730     0.11700
C349        C  0.01672783  0.58418144  0.77443074    -0.14400
C350        C  0.97842490  0.55781857  0.78197651     0.07700
C351        C  0.96408697  0.52762742  0.74936895    -0.14400
C352        C  0.98876580  0.52328540  0.71012799    -0.14400
C353        C  0.02868854  0.54796519  0.70409579     0.07700
C354        C  0.04223079  0.57846149  0.73658566    -0.14400
H355        H  0.02869521  0.60729773  0.79960909     0.11700
H356        H  0.93537270  0.50627693  0.75504817     0.11700
H357        H  0.97662645  0.50093585  0.68432981     0.11700
H358        H  0.07222260  0.59835247  0.73239457     0.11700
C359        C  0.45691311  0.35962174  0.04475208    -0.14400
C360        C  0.42730597  0.32643883  0.03067136     0.07700
C361        C  0.39674454  0.33464313  0.99564649    -0.14400
C362        C  0.39875805  0.37397621  0.97157921    -0.14400
C363        C  0.43028368  0.40627871  0.98354665     0.07700
C364        C  0.45777719  0.39989339  0.02171089    -0.14400
H365        H  0.48101510  0.35341090  0.07136019     0.11700
H366        H  0.37359695  0.30902034  0.98486118     0.11700
H367        H  0.37630529  0.37888466  0.94334971     0.11700
H368        H  0.48063336  0.42575171  0.03291501     0.11700
C369        C  0.48080123  0.71857730  0.09714012    -0.14400
C370        C  0.45721356  0.69449350  0.06467741     0.07700
C371        C  0.42528269  0.71503238  0.03700745    -0.14400
C372        C  0.41880740  0.76039402  0.03975585    -0.14400
C373        C  0.44363962  0.78506372  0.07080369     0.07700
C374        C  0.47363106  0.76417406  0.10052909    -0.14400
H375        H  0.50536550  0.70241237  0.11855598     0.11700
H376        H  0.40683500  0.69606391  0.01208899     0.11700
H377        H  0.39549057  0.77645948  0.01687361     0.11700
H378        H  0.49312304  0.78342687  0.12440215     0.11700
C379        C  0.39813267  0.04805281  0.35105770    -0.14400
C380        C  0.42690252  0.07551180  0.32681117     0.07700
C381        C  0.45381826  0.10738604  0.34844618    -0.14400
C382        C  0.45595238  0.10804468  0.39469682    -0.14400
C383        C  0.43015429  0.07773200  0.41877717     0.07700
C384        C  0.39920454  0.04973248  0.39723822    -0.14400
H385        H  0.37651263  0.02411678  0.33437072     0.11700
H386        H  0.47569227  0.12918841  0.32966334     0.11700
H387        H  0.48018287  0.12932071  0.41147618     0.11700
H388        H  0.37955230  0.02600358  0.41613077     0.11700
C389        C  0.47561304  0.05718349  0.75301053    -0.14400
C390        C  0.47999650  0.02889662  0.78970920     0.07700
C391        C  0.49631950  0.98512763  0.78382667    -0.14400
C392        C  0.50087117  0.96747375  0.74155000    -0.14400
C393        C  0.49039697  0.99383697  0.70487366     0.07700
C394        C  0.48139152  0.03969425  0.71043352    -0.14400
H395        H  0.46429548  0.09118846  0.75693086     0.11700
H396        H  0.50177466  0.96305141  0.81197727     0.11700
H397        H  0.50842518  0.93242340  0.73764415     0.11700
H398        H  0.47434250  0.06072323  0.68180042     0.11700
C399        C  0.62669629  0.99660835  0.48904899    -0.14400
C400        C  0.59599627  0.00282041  0.52323308     0.07700
C401        C  0.60088699  0.03913595  0.55275426    -0.14400
C402        C  0.64012465  0.06398382  0.55300560    -0.14400
C403        C  0.67345093  0.05334005  0.52269929     0.07700
C404        C  0.66508538  0.02263766  0.48824988    -0.14400
H405        H  0.62237590  0.97007923  0.46494217     0.11700
H406        H  0.57578076  0.04595180  0.57772608     0.11700
H407        H  0.64641194  0.08757395  0.57969509     0.11700
H408        H  0.69099729  0.01468585  0.46444953     0.11700
C409        C  0.24409336  0.01821874  0.56527517    -0.14400
C410        C  0.21907598  0.05555271  0.57742188     0.07700
C411        C  0.24004033  0.09168381  0.59901050    -0.14400
C412        C  0.28598499  0.09068520  0.60757814    -0.14400
C413        C  0.31091553  0.05390819  0.59388979     0.07700
C414        C  0.28985739  0.01760720  0.57311805    -0.14400
H415        H  0.22847873  0.99001616  0.54874826     0.11700
H416        H  0.22094323  0.12049681  0.60925904     0.11700
H417        H  0.30232583  0.11897851  0.62321809     0.11700
H418        H  0.30923926  0.98938063  0.56177336     0.11700
C419        C  0.91350163  0.76403782  0.59194265    -0.14400
C420        C  0.94236845  0.78652065  0.56291793     0.07700
C421        C  0.97408517  0.76340263  0.53799151    -0.14400
C422        C  0.97748716  0.71779382  0.54257406    -0.14400
C423        C  0.94987846  0.69552676  0.57280232     0.07700
C424        C  0.91755651  0.71828177  0.59720094    -0.14400
H425        H  0.88916727  0.78203775  0.61152646     0.11700
H426        H  0.99632857  0.78071431  0.51537483     0.11700
H427        H  0.00213605  0.69982029  0.52333683     0.11700
H428        H  0.89604567  0.70071490  0.62027212     0.11700
C429        C  0.95047416  0.35800053  0.57201680    -0.14400
C430        C  0.95836327  0.32672327  0.53868517     0.07700
C431        C  0.99052165  0.33516321  0.50580454    -0.14400
C432        C  0.01818318  0.37207098  0.50899993    -0.14400
C433        C  0.01219197  0.40248864  0.54359221     0.07700
C434        C  0.97673135  0.39635967  0.57387154    -0.14400
H435        H  0.92654750  0.35129582  0.59818111     0.11700
H436        H  0.99741336  0.31055152  0.48037189     0.11700
H437        H  0.04457457  0.37650577  0.48485813     0.11700
H438        H  0.97001969  0.42084710  0.59944507     0.11700
C439        C  0.16690228  0.21970263  0.39939366    -0.14400
C440        C  0.14513624  0.25558067  0.37771985     0.07700
C441        C  0.10391907  0.26990044  0.39521894    -0.14400
C442        C  0.08463757  0.24866538  0.43222482    -0.14400
C443        C  0.10577881  0.21227493  0.45348534     0.07700
C444        C  0.14755647  0.19841994  0.43671838    -0.14400
H445        H  0.19881005  0.20779436  0.38732633     0.11700
H446        H  0.08588649  0.29728197  0.37982781     0.11700
H447        H  0.05254540  0.26053878  0.44377964     0.11700
H448        H  0.16515844  0.17079702  0.45216768     0.11700
C449        C  0.09600644  0.39142208  0.27985176    -0.14400
C450        C  0.13718301  0.37577421  0.26304747     0.07700
C451        C  0.15606714  0.39897192  0.22695636    -0.14400
C452        C  0.13423015  0.43573427  0.20762103    -0.14400
C453        C  0.09249190  0.45081051  0.22346317     0.07700
C454        C  0.07394696  0.42834144  0.26030680    -0.14400
H455        H  0.08033613  0.37465400  0.30769098     0.11700
H456        H  0.18778902  0.38851187  0.21319441     0.11700
H457        H  0.15010511  0.45211519  0.17965815     0.11700
H458        H  0.04207817  0.43887232  0.27367121     0.11700
C459        C  0.27622331  0.22004995  0.26799369    -0.14400
C460        C  0.25443194  0.25834077  0.25155884     0.07700
C461        C  0.26953896  0.27618570  0.21062022    -0.14400
C462        C  0.30513712  0.25635700  0.18705239    -0.14400
C463        C  0.32690738  0.21803809  0.20366537     0.07700
C464        C  0.31168031  0.20034707  0.24457655    -0.14400
H465        H  0.26591111  0.20509643  0.29918423     0.11700
H466        H  0.25376381  0.30556979  0.19658998     0.11700
H467        H  0.31569384  0.27117744  0.15588103     0.11700
H468        H  0.32731199  0.17099991  0.25885979     0.11700
C469        C  0.10016141  0.26893415  0.72703328    -0.14400
C470        C  0.14084770  0.25215476  0.74460768     0.07700
C471        C  0.16032689  0.21546137  0.72293160    -0.14400
C472        C  0.13983943  0.19593756  0.68540083    -0.14400
C473        C  0.09902858  0.21230929  0.66791265     0.07700
C474        C  0.07956981  0.24932329  0.68920401    -0.14400
H475        H  0.08406863  0.29712646  0.74260500     0.11700
H476        H  0.19160849  0.20143271  0.73505112     0.11700
H477        H  0.15614900  0.16769473  0.67012254     0.11700
H478        H  0.04821662  0.26298704  0.67683659     0.11700
C479        C  0.14455660  0.41899563  0.92944947    -0.14400
C480        C  0.10735366  0.44135528  0.91047404     0.07700
C481        C  0.08973162  0.42449652  0.86992114    -0.14400
C482        C  0.10846292  0.38707422  0.84904708    -0.14400
C483        C  0.14578479  0.36480819  0.86765728     0.07700
C484        C  0.16348756  0.38138849  0.90836370    -0.14400
H485        H  0.15909485  0.43053887  0.96063888     0.11700
H486        H  0.06116346  0.44034269  0.85393937     0.11700
H487        H  0.09364056  0.37577057  0.81789841     0.11700
H488        H  0.19205572  0.36527494  0.92405346     0.11700
C489        C  0.28502674  0.21203204  0.83256705    -0.14400
C490        C  0.26611816  0.24921808  0.85439248     0.07700
C491        C  0.28820252  0.26536895  0.89267664    -0.14400
C492        C  0.32703672  0.24460300  0.90921083    -0.14400
C493        C  0.34566692  0.20696366  0.88817749     0.07700
C494        C  0.32423333  0.19119238  0.84922016    -0.14400
H495        H  0.26919087  0.19854449  0.80282131     0.11700
H496        H  0.27510436  0.29377693  0.91049927     0.11700
H497        H  0.34190105  0.25762734  0.93948282     0.11700
H498        H  0.33721979  0.16232173  0.83207982     0.11700
C499        C  0.72683421  0.90314744  0.72090443    -0.14400
C500        C  0.74350623  0.86239144  0.73789617     0.07700
C501        C  0.77973787  0.84290952  0.71519963    -0.14400
C502        C  0.79884970  0.86331901  0.67752809    -0.14400
C503        C  0.78268454  0.90423501  0.66066588     0.07700
C504        C  0.74607238  0.92369937  0.68294394    -0.14400
H505        H  0.69906747  0.91943722  0.73714875     0.11700
H506        H  0.79372434  0.81159691  0.72662451     0.11700
H507        H  0.82676055  0.84686413  0.66167358     0.11700
H508        H  0.73254804  0.95515499  0.67136270     0.11700
C509        C  0.79089978  0.72368910  0.83154475    -0.14400
C510        C  0.75107008  0.74016792  0.85069999     0.07700
C511        C  0.73413281  0.71721241  0.88794465    -0.14400
C512        C  0.75628991  0.67966468  0.90565105    -0.14400
C513        C  0.79629981  0.66328122  0.88685616     0.07700
C514        C  0.81311598  0.68591666  0.84929403    -0.14400
H515        H  0.80525459  0.74021304  0.80286718     0.11700
H516        H  0.70371723  0.72842619  0.90382279     0.11700
H517        H  0.74207183  0.66370181  0.93467632     0.11700
H518        H  0.84372050  0.67470320  0.83378524     0.11700
C519        C  0.61209077  0.89676958  0.84875815    -0.14400
C520        C  0.62953480  0.85483521  0.86077819     0.07700
C521        C  0.60847113  0.83216754  0.89642770    -0.14400
C522        C  0.57188865  0.85116024  0.91952040    -0.14400
C523        C  0.55510416  0.89355779  0.90784068     0.07700
C524        C  0.57590516  0.91571620  0.87182994    -0.14400
H525        H  0.62690200  0.91556896  0.82175218     0.11700
H526        H  0.62039824  0.79966324  0.90672841     0.11700
H527        H  0.55681542  0.83263229  0.94656964     0.11700
H528        H  0.56462052  0.94844771  0.86162024     0.11700
C529        C  0.80721690  0.25151307  0.67582720    -0.14400
C530        C  0.78649800  0.21520450  0.65405694     0.07700
C531        C  0.74712673  0.19755896  0.67299056    -0.14400
C532        C  0.72923721  0.21553390  0.71240157    -0.14400
C533        C  0.75010200  0.25176865  0.73419596     0.07700
C534        C  0.78934527  0.26946642  0.71512500    -0.14400
H535        H  0.83776245  0.26588554  0.66280042     0.11700
H536        H  0.73026376  0.16945122  0.65759309     0.11700
H537        H  0.69901205  0.20088801  0.72583669     0.11700
H538        H  0.80664390  0.29718654  0.73074969     0.11700
C539        C  0.73809974  0.38846789  0.89065828    -0.14400
C540        C  0.75494582  0.36822866  0.85193511     0.07700
C541        C  0.79264757  0.38807935  0.83171044    -0.14400
C542        C  0.81297755  0.42653942  0.84978523    -0.14400
C543        C  0.79629900  0.44657968  0.88870545     0.07700
C544        C  0.75836539  0.42692268  0.90867875    -0.14400
H545        H  0.70920161  0.37451537  0.90729155     0.11700
H546        H  0.80676765  0.37376089  0.80184600     0.11700
H547        H  0.84204729  0.44038990  0.83335773     0.11700
H548        H  0.74435064  0.44108057  0.93867633     0.11700
C549        C  0.58031525  0.18968636  0.85849856    -0.14400
C550        C  0.56236756  0.20625109  0.89855113     0.07700
C551        C  0.58304736  0.24417804  0.91752547    -0.14400
C552        C  0.62033406  0.26465999  0.89719712    -0.14400
C553        C  0.63820323  0.24803101  0.85709750     0.07700
C554        C  0.61743052  0.21017513  0.83817136    -0.14400
H555        H  0.56551868  0.16076770  0.84254158     0.11700
H556        H  0.57046328  0.25809657  0.94826608     0.11700
H557        H  0.63516175  0.29363409  0.91301366     0.11700
H558        H  0.62981626  0.19619028  0.80738286     0.11700
C559        C  0.16265917  0.89149982  0.72406426    -0.14400
C560        C  0.14205200  0.85531435  0.74602665     0.07700
C561        C  0.09991987  0.84104282  0.72951678    -0.14400
C562        C  0.07907712  0.86239814  0.69270008    -0.14400
C563        C  0.09960546  0.89879616  0.67098326     0.07700
C564        C  0.14187917  0.91279102  0.68731983    -0.14400
H565        H  0.19510463  0.90359548  0.73529164     0.11700
H566        H  0.08273641  0.81348224  0.74529061     0.11700
H567        H  0.04660988  0.85044067  0.68138150     0.11700
H568        H  0.15912306  0.94038688  0.67165295     0.11700
C569        C  0.10995230  0.71326995  0.84495241    -0.14400
C570        C  0.14777039  0.73505081  0.86310953     0.07700
C571        C  0.16676071  0.71726168  0.90277454    -0.14400
C572        C  0.14815811  0.67952064  0.92384779    -0.14400
C573        C  0.10995448  0.65812760  0.90594878     0.07700
C574        C  0.09141981  0.67560238  0.86596621    -0.14400
H575        H  0.09427650  0.72554230  0.81456431     0.11700
H576        H  0.19591791  0.73281390  0.91800202     0.11700
H577        H  0.16350205  0.66737897  0.95445570     0.11700
H578        H  0.06192092  0.66050986  0.85101229     0.11700
C579        C  0.27969266  0.89585607  0.84704571    -0.14400
C580        C  0.26327037  0.85451082  0.86216878     0.07700
C581        C  0.28598497  0.83386847  0.89817637    -0.14400
C582        C  0.32353148  0.85403177  0.91861586    -0.14400
C583        C  0.33976360  0.89552203  0.90372093     0.07700
C584        C  0.31729879  0.91602015  0.86747660    -0.14400
H585        H  0.26323465  0.91297239  0.81957279     0.11700
H586        H  0.27465149  0.80202737  0.91085363     0.11700
H587        H  0.33977877  0.83705750  0.94631191     0.11700
H588        H  0.32850474  0.94801547  0.85506805     0.11700
C589        C  0.09928115  0.84110921  0.39774682    -0.14400
C590        C  0.13615248  0.86042887  0.37581959     0.07700
C591        C  0.15478482  0.89960334  0.39426532    -0.14400
C592        C  0.13700715  0.91895948  0.43299933    -0.14400
C593        C  0.09989844  0.89988244  0.45469311     0.07700
C594        C  0.08144867  0.86051171  0.43646797    -0.14400
H595        H  0.08390140  0.81100279  0.38485930     0.11700
H596        H  0.18312997  0.91566030  0.37860177     0.11700
H597        H  0.15210804  0.94931214  0.44563663     0.11700
H598        H  0.05283199  0.84473058  0.45194743     0.11700
C599        C  0.07242278  0.68646851  0.25597886    -0.14400
C600        C  0.09204931  0.66458555  0.21945141     0.07700
C601        C  0.13285918  0.68191270  0.20329115    -0.14400
C602        C  0.15281836  0.72012587  0.22228251    -0.14400
C603        C  0.13286933  0.74248336  0.25830608     0.07700
C604        C  0.09249680  0.72466113  0.27509115    -0.14400
H605        H  0.04115778  0.67437420  0.26959732     0.11700
H606        H  0.14937023  0.66615585  0.17545049     0.11700
H607        H  0.18396401  0.73227067  0.20846742     0.11700
H608        H  0.07594110  0.74057023  0.30281134     0.11700
C609        C  0.30865178  0.92065107  0.25594777    -0.14400
C610        C  0.32514937  0.90653913  0.21438668     0.07700
C611        C  0.30242561  0.87103864  0.19296549    -0.14400
C612        C  0.26486980  0.85027499  0.21249942    -0.14400
C613        C  0.24861725  0.86418748  0.25423491     0.07700
C614        C  0.27115922  0.89988070  0.27548000    -0.14400
H615        H  0.32493975  0.94770613  0.27369034     0.11700
H616        H  0.31363408  0.85921083  0.16083389     0.11700
H617        H  0.24853699  0.82324435  0.19476767     0.11700
H618        H  0.26000332  0.91178443  0.30759900     0.11700
C619        C  0.78812967  0.84246217  0.38533709    -0.14400
C620        C  0.74804135  0.85959398  0.36665524     0.07700
C621        C  0.72918311  0.89725737  0.38736461    -0.14400
C622        C  0.74947554  0.91713770  0.42498888    -0.14400
C623        C  0.78955241  0.90027630  0.44371944     0.07700
C624        C  0.80851157  0.86243881  0.42325782    -0.14400
H625        H  0.80388864  0.81363135  0.37061262     0.11700
H626        H  0.69842566  0.91173562  0.37446246     0.11700
H627        H  0.73354869  0.94600162  0.43943405     0.11700
H628        H  0.83935510  0.84834238  0.43639307     0.11700
C629        C  0.74091537  0.68996713  0.18292301    -0.14400
C630        C  0.77834706  0.66736461  0.20111463     0.07700
C631        C  0.79607888  0.68351739  0.24197079    -0.14400
C632        C  0.77769033  0.72090455  0.26345264    -0.14400
C633        C  0.74057429  0.74383957  0.24521190     0.07700
C634        C  0.72232882  0.72744182  0.20461110    -0.14400
H635        H  0.72605583  0.67886887  0.15171702     0.11700
H636        H  0.82470325  0.66736279  0.25752407     0.11700
H637        H  0.79281822  0.73188577  0.29457229     0.11700
H638        H  0.69375661  0.74383440  0.18923711     0.11700
C639        C  0.59990751  0.84559764  0.21841817    -0.14400
C640        C  0.62335641  0.86304630  0.25542579     0.07700
C641        C  0.60602826  0.90198774  0.27540639    -0.14400
C642        C  0.56701933  0.92304021  0.25844605    -0.14400
C643        C  0.54394745  0.90573800  0.22102604     0.07700
C644        C  0.56103828  0.86643471  0.20163972    -0.14400
H645        H  0.61172677  0.81579752  0.20203242     0.11700
H646        H  0.62288410  0.91659943  0.30405039     0.11700
H647        H  0.55527866  0.95314182  0.27433052     0.11700
H648        H  0.54463397  0.85175457  0.17276612     0.11700
C649        C  0.78446814  0.27465957  0.38049790    -0.14400
C650        C  0.74442457  0.25700244  0.36208050     0.07700
C651        C  0.72695763  0.21812347  0.38196661    -0.14400
C652        C  0.74866692  0.19765855  0.41866875    -0.14400
C653        C  0.78875776  0.21520953  0.43707323     0.07700
C654        C  0.80620892  0.25417088  0.41730517    -0.14400
H655        H  0.79919779  0.30446624  0.36643197     0.11700
H656        H  0.69631044  0.20327124  0.36914297     0.11700
H657        H  0.73381421  0.16788555  0.43270042     0.11700
H658        H  0.83682938  0.26894929  0.43027678     0.11700
C659        C  0.77366550  0.39926579  0.26425130    -0.14400
C660        C  0.73689717  0.37660367  0.24518781     0.07700
C661        C  0.71891459  0.39328958  0.20460920    -0.14400
C662        C  0.73771375  0.43084324  0.18341900    -0.14400
C663        C  0.77502447  0.45301870  0.20220204     0.07700
C664        C  0.79229805  0.43676653  0.24323377    -0.14400
H665        H  0.78834913  0.38791222  0.29547364     0.11700
H666        H  0.69053683  0.37695141  0.18875130     0.11700
H667        H  0.72336463  0.44212268  0.15201947     0.11700
H668        H  0.82081397  0.45280747  0.25916488     0.11700
C669        C  0.59648002  0.28112039  0.21366208    -0.14400
C670        C  0.61933289  0.25984870  0.24927265     0.07700
C671        C  0.60185780  0.21925763  0.26506227    -0.14400
C672        C  0.56339916  0.20014265  0.24531069    -0.14400
C673        C  0.54113415  0.22094910  0.20906979     0.07700
C674        C  0.55804499  0.26199946  0.19389347    -0.14400
H675        H  0.60854006  0.31253212  0.20059172     0.11700
H676        H  0.61825154  0.20182179  0.29236892     0.11700
H677        H  0.55155754  0.16851363  0.25807563     0.11700
H678        H  0.54194389  0.27916730  0.16623647     0.11700
loop_ 
_geom_bond_atom_site_label_1 
_geom_bond_atom_site_label_2 
_geom_bond_distance 
_geom_bond_site_symmetry_2 
_ccdc_geom_bond_type 
C1            N2   1.369       .  A
C1            N6   1.361       .  A
C1          C660   1.505       .  S
N2            C3   1.369       .  A
C3            N4   1.368       .  A
C3          C650   1.514       .  S
N4            C5   1.367       .  A
C5            N6   1.362       .  A
C5          C670   1.503       .  S
C7            N8   1.373       .  A
C7           N12   1.370       .  A
C7          C633   1.519       .  S
N8            C9   1.371       .  A
C9           N10   1.364       .  A
C9          C620   1.513       .  S
N10          C11   1.362       .  A
C11          N12   1.369       .  A
C11         C640   1.510       .  S
C13          N14   1.369       .  A
C13          N18   1.364       .  A
C13         C613   1.512       .  S
N14          C15   1.371       .  A
C15          N16   1.367       .  A
C15         C603   1.512       .  S
N16          C17   1.366       .  A
C17          N18   1.364       .  A
C17         C590   1.506       .  S
C19          N20   1.365       .  A
C19          N24   1.363       .  A
C19         C580   1.504       .  S
N20          C21   1.367       .  A
C21          N22   1.371       .  A
C21         C560   1.513       .  S
N22          C23   1.371       .  A
C23          N24   1.363       .  A
C23         C570   1.510       .  S
C25          N26   1.364       .  A
C25          N30   1.366       .  A
C25         C533   1.505       .  S
N26          C27   1.364       .  A
C27          N28   1.369       .  A
C27         C540   1.507       .  S
N28          C29   1.369       .  A
C29          N30   1.367       .  A
C29         C553   1.510       .  S
C31          N32   1.371       .  A
C31          N36   1.366       .  A
C31         C500   1.517       .  S
N32          C33   1.373       .  A
C33          N34   1.369       .  A
C33         C520   1.519       .  S
N34          C35   1.369       .  A
C35          N36   1.365       .  A
C35         C510   1.513       .  S
C37          N38   1.370       .  A
C37          N42   1.360       .  A
C37         C490   1.504       .  S
N38          C39   1.369       .  A
C39          N40   1.370       .  A
C39         C483   1.513       .  S
N40          C41   1.367       .  A
C41          N42   1.362       .  A
C41         C470   1.504       .  S
C43          N44   1.365       .  A
C43          N48   1.370       .  A
C43         C460   1.511       .  S
N44          C45   1.366       .  A
C45          N46   1.364       .  A
C45         C450   1.506       .  S
N46          C47   1.366       .  A
C47          N48   1.369       .  A
C47         C440   1.509       .  S
O49         Ti67   2.156       .  S
O49         Ti66   2.139   1_455  S
O50          C51   1.278       .  A
O50         Ti58   2.173       .  S
C51         C653   1.514       .  S
C51          O87   1.274       .  A
O52          C85   1.271       .  A
O52         Ti89   2.105       .  S
O53         Ti89   2.157       .  S
O53         Ti67   2.158       .  S
C54         C403   1.436       .  S
C54          O69   1.266       .  A
C54         O102   1.269       .  A
O55          C57   1.273       .  A
O55         Ti58   2.141       .  S
C56         C530   1.505       .  S
C56          O91   1.277       .  A
C56          O77   1.277       .  A
C57         C430   1.441       .  S
C57          O70   1.261       .  A
Ti58         O71   2.143       .  S
Ti58         O74   2.163       .  S
Ti58         O60   2.166       .  S
Ti58         O77   2.154       .  S
Ti59        O104   2.163       .  S
Ti59         O99   2.154       .  S
Ti59         O78   2.138   1_655  S
Ti59         O76   2.090       .  S
Ti59         O73   2.150   1_655  S
Ti59         O82   2.163   1_655  S
O60         Ti66   2.151       .  S
O61        Ti103   2.167       .  S
O61         Ti65   2.165       .  S
C62         C563   1.513       .  S
C62          O82   1.275       .  A
C62          O86   1.275       .  A
O63         Ti97   2.144       .  S
O63        Ti103   2.139   1_565  S
C64         C623   1.514       .  S
C64          O90   1.273       .  A
C64          O96   1.273       .  A
Ti65         O80   2.163       .  S
Ti65         O71   2.137       .  S
Ti65        O102   2.121       .  S
Ti65         O91   2.159       .  S
Ti65         O87   2.155       .  S
Ti66         O74   2.166       .  S
Ti66         O94   2.147   1_655  S
Ti66         O70   2.056       .  S
Ti66         O81   2.161   1_655  S
Ti67         O72   2.150       .  S
Ti67         O98   2.141       .  S
Ti67         O92   2.167       .  S
Ti67         O95   2.104       .  S
O68          C84   1.280       .  A
O68        Ti103   2.184   1_565  S
O69        Ti103   2.071       .  S
O72         Ti89   2.152       .  S
O73          C88   1.273       .  A
O75          C84   1.275       .  A
O75         Ti97   2.153       .  S
O76          C79   1.267       .  A
O78         Ti89   2.144   1_565  S
C79         C420   1.437       .  S
C79          O93   1.266       .  A
O80        Ti103   2.154       .  S
O81          C83   1.273       .  A
C83         C473   1.504       .  S
C83          O98   1.271       .  A
C84         C503   1.517       .  S
C85         C410   1.453       .  S
C85          O95   1.269       .  A
O86         Ti89   2.161   1_565  S
C88         C593   1.505       .  S
C88         O100   1.275       .  A
Ti89        O100   2.158   1_545  S
O90         Ti97   2.164       .  S
O92         C101   1.274       .  A
O93         Ti97   2.099       .  S
O94         C101   1.271       .  A
O96        Ti103   2.158   1_565  S
Ti97        O104   2.162       .  S
Ti97         O99   2.157       .  S
C101        C443   1.510       .  S
O105       Ti123   2.134       .  S
O105       Ti122   2.147   1_565  S
O106        C107   1.271       .  A
O106       Ti114   2.138       .  S
C107        C673   1.501       .  S
C107        O143   1.276       .  A
O108        C141   1.269       .  A
O108       Ti145   2.098       .  S
O109       Ti145   2.160       .  S
O109       Ti123   2.151       .  S
C110        C360   1.444       .  S
C110        O125   1.264       .  A
C110        O158   1.274       .  A
O111        C113   1.263       .  A
O111       Ti114   2.080       .  S
C112        C463   1.512       .  S
C112        O147   1.279       .  A
C112        O133   1.271       .  A
C113        C380   1.441       .  S
C113        O126   1.273       .  A
Ti114       O127   2.133       .  S
Ti114       O130   2.156       .  S
Ti114       O116   2.166       .  S
Ti114       O133   2.141       .  S
Ti115       O160   2.141   1_565  S
Ti115       O155   2.165   1_565  S
Ti115       O134   2.129       .  S
Ti115       O132   2.048   1_565  S
Ti115       O129   2.137       .  S
Ti115       O138   2.150       .  S
O116       Ti122   2.166       .  S
O117       Ti159   2.149   1_554  S
O117       Ti121   2.171       .  S
C118        C583   1.503       .  S
C118        O138   1.272       .  A
C118        O142   1.273       .  A
O119       Ti153   2.158       .  S
O119       Ti159   2.128       .  S
C120        C550   1.511       .  S
C120        O146   1.277       .  A
C120        O152   1.278       .  A
Ti121       O136   2.155       .  S
Ti121       O127   2.159       .  S
Ti121       O158   2.141       .  S
Ti121       O147   2.180       .  S
Ti121       O143   2.160       .  S
Ti122       O130   2.161       .  S
Ti122       O150   2.189   1_545  S
Ti122       O126   2.119       .  S
Ti122       O137   2.173   1_545  S
Ti123       O128   2.161       .  S
Ti123       O154   2.157       .  S
Ti123       O148   2.125       .  S
Ti123       O151   2.097       .  S
O124        C140   1.266       .  A
O124       Ti159   2.116       .  S
O125       Ti159   2.068   1_554  S
O128       Ti145   2.154       .  S
O129        C144   1.268       .  A
O131        C140   1.278       .  A
O131       Ti153   2.182       .  S
O132        C135   1.259       .  A
O134       Ti145   2.153   1_556  S
C135        C390   1.459       .  S
C135        O149   1.277       .  A
O136       Ti159   2.167   1_554  S
O137        C139   1.279       .  A
C139        C610   1.513       .  S
C139        O154   1.275       .  A
C140        C493   1.506       .  S
C141        C373   1.438       .  S
C141        O151   1.266       .  A
O142       Ti145   2.152   1_556  S
C144        C523   1.519       .  S
C144        O156   1.278       .  A
Ti145       O156   2.191   1_554  S
O146       Ti153   2.158       .  S
O148        C157   1.268       .  A
O149       Ti153   2.154       .  S
O150        C157   1.280       .  A
O152       Ti159   2.170       .  S
Ti153       O160   2.161       .  S
Ti153       O155   2.158       .  S
C157        C643   1.511       .  S
O161       Ti179   2.172       .  S
O161       Ti178   2.125       .  S
O162        C163   1.281       .  A
O162       Ti170   2.184       .  S
C163        C663   1.507       .  S
C163        O199   1.271       .  A
O164        C197   1.259       .  A
O164       Ti201   2.048   1_655  S
O165       Ti201   2.153   1_655  S
O165       Ti179   2.152       .  S
C166        C340   1.442       .  S
C166        O181   1.271       .  A
C166        O214   1.266       .  A
O167        C169   1.277       .  A
O167       Ti170   2.157       .  S
C168        C630   1.518       .  S
C168        O203   1.274       .  A
C168        O189   1.282       .  A
C169        C330   1.452       .  S
C169        O182   1.257   1_554  A
Ti170       O183   2.152       .  S
Ti170       O186   2.174       .  S
Ti170       O172   2.170       .  S
Ti170       O189   2.190       .  S
Ti171       O216   2.160       .  S
Ti171       O211   2.161       .  S
Ti171       O190   2.155   1_554  S
Ti171       O188   2.108       .  S
Ti171       O185   2.184   1_554  S
Ti171       O194   2.176   1_554  S
O172       Ti178   2.167   1_554  S
O173       Ti215   2.162       .  S
O173       Ti177   2.160       .  S
C174        C573   1.510       .  S
C174        O194   1.276       .  A
C174        O198   1.267       .  A
O175       Ti209   2.137       .  S
O175       Ti215   2.152   1_455  S
C176        C453   1.507       .  S
C176        O202   1.269       .  A
C176        O208   1.277       .  A
Ti177       O192   2.160       .  S
Ti177       O183   2.131       .  S
Ti177       O214   2.099       .  S
Ti177       O203   2.148       .  S
Ti177       O199   2.132       .  S
Ti178       O186   2.160   1_556  S
Ti178       O206   2.148       .  S
Ti178       O182   2.039       .  S
Ti178       O193   2.141       .  S
Ti179       O184   2.160       .  S
Ti179       O210   2.182       .  S
Ti179       O204   2.168       .  S
Ti179       O207   2.172       .  S
O180        C196   1.277       .  A
O180       Ti215   2.168   1_455  S
O181       Ti215   2.106       .  S
O184       Ti201   2.146   1_655  S
O185        C200   1.279       .  A
O187        C196   1.274       .  A
O187       Ti209   2.152       .  S
O188        C191   1.270       .  A
O190       Ti201   2.132       .  S
C191        C323   1.432       .  S
C191        O205   1.262       .  A
O192       Ti215   2.159       .  S
O193        C195   1.271       .  A
C195        C513   1.514       .  S
C195        O210   1.279       .  A
C196        C600   1.511       .  S
C197        C350   1.458       .  S
C197        O207   1.281       .  A
O198       Ti201   2.134       .  S
C200        C480   1.514       .  S
C200        O212   1.271       .  A
Ti201       O212   2.140       .  S
O202       Ti209   2.131       .  S
O204        C213   1.278       .  A
O205       Ti209   2.087       .  S
O206        C213   1.273       .  A
O208       Ti215   2.178   1_455  S
Ti209       O216   2.158       .  S
Ti209       O211   2.160       .  S
C213        C543   1.508       .  S
N217        C222   1.343   1_655  A
N217        C221   1.346       .  A
N217        H249   1.044       .  S
N218        C225   1.338       .  A
N218        C226   1.337       .  A
N219        C224   1.341       .  A
N219        C223   1.344   1_455  A
N219        H250   1.043   1_455  S
N220        C227   1.344       .  A
N220        C228   1.346       .  A
C221        C229   1.390   1_655  A
C221        C237   1.407       .  A
C222        C238   1.388       .  A
C222        C230   1.382       .  A
C223        C231   1.391   1_655  A
C223        C240   1.404       .  A
C224        C239   1.387       .  A
C224        C232   1.382       .  A
C225        C237   1.394       .  A
C225        C233   1.386       .  A
C226        C240   1.396       .  A
C226        C234   1.388       .  A
C227        C235   1.387       .  A
C227        C238   1.400       .  A
C228        C236   1.384       .  A
C228        C239   1.398       .  A
C229        C230   1.374       .  A
C229        H241   1.082   1_455  S
C230        H242   1.082       .  S
C231        C232   1.375       .  A
C231        H243   1.082       .  S
C232        H244   1.082       .  S
C233        C234   1.374       .  A
C233        H245   1.083       .  S
C234        H246   1.082       .  S
C235        C236   1.374       .  A
C235        H247   1.082       .  S
C236        H248   1.082       .  S
C237        C343   1.453       .  S
C238        C433   1.467       .  S
C239        C353   1.472       .  S
C240        C423   1.448       .  S
N251        C256   1.343       .  A
N251        C255   1.343   1_545  A
N251        H283   1.043       .  S
N252        C259   1.344       .  A
N252        C260   1.346       .  A
N253        C258   1.345       .  A
N253        C257   1.338   1_545  A
N253        H284   1.042       .  S
N254        C261   1.336       .  A
N254        C262   1.337       .  A
C255        C263   1.380       .  A
C255        C271   1.383       .  A
C256        C272   1.409       .  A
C256        C264   1.393       .  A
C257        C265   1.381       .  A
C257        C274   1.386       .  A
C258        C273   1.407       .  A
C258        C266   1.390   1_545  A
C259        C271   1.402       .  A
C259        C267   1.389       .  A
C260        C274   1.392       .  A
C260        C268   1.383       .  A
C261        C269   1.384       .  A
C261        C272   1.392       .  A
C262        C270   1.389       .  A
C262        C273   1.400       .  A
C263        C264   1.374   1_565  A
C263        H275   1.082       .  S
C264        H276   1.082       .  S
C265        C266   1.377       .  A
C265        H277   1.082       .  S
C266        H278   1.082       .  S
C267        C268   1.370       .  A
C267        H279   1.083       .  S
C268        H280   1.082       .  S
C269        C270   1.375       .  A
C269        H281   1.082       .  S
C270        H282   1.081       .  S
C271        C400   1.464   1_565  S
C272        C383   1.449       .  S
C273        C413   1.458       .  S
C274        C393   1.462       .  S
N285        C290   1.347       .  A
N285        C289   1.347       .  A
N285        H317   1.044       .  S
N286        C293   1.339   1_554  A
N286        C294   1.340       .  A
N287        C292   1.339       .  A
N287        C291   1.338       .  A
N287        H318   1.039       .  S
N288        C295   1.340   1_554  A
N288        C296   1.340       .  A
C289        C297   1.387       .  A
C289        C305   1.402       .  A
C290        C306   1.405       .  A
C290        C298   1.388       .  A
C291        C299   1.387       .  A
C291        C308   1.394       .  A
C292        C307   1.395       .  A
C292        C300   1.386       .  A
C293        C305   1.386       .  A
C293        C301   1.386       .  A
C294        C308   1.401       .  A
C294        C302   1.386   1_554  A
C295        C303   1.383       .  A
C295        C306   1.384       .  A
C296        C304   1.388       .  A
C296        C307   1.402       .  A
C297        C298   1.375       .  A
C297        H309   1.083       .  S
C298        H310   1.083       .  S
C299        C300   1.380       .  A
C299        H311   1.082       .  S
C300        H312   1.082       .  S
C301        C302   1.375       .  A
C301        H313   1.082       .  S
C302        H314   1.082       .  S
C303        C304   1.375   1_556  A
C303        H315   1.082       .  S
C304        H316   1.082       .  S
C305        C333   1.458       .  S
C306        C363   1.467       .  S
C307        C320   1.448       .  S
C308        C370   1.447       .  S
C319        C320   1.398       .  A
C319        C324   1.388       .  A
C319        H325   1.083       .  S
C320        C321   1.400       .  A
C321        C322   1.381       .  A
C321        H326   1.084       .  S
C322        C323   1.393       .  A
C322        H327   1.084       .  S
C323        C324   1.400       .  A
C324        H328   1.084       .  S
C329        C330   1.394       .  A
C329        C334   1.393       .  A
C329        H335   1.083       .  S
C330        C331   1.411   1_554  A
C331        C332   1.379       .  A
C331        H336   1.083       .  S
C332        C333   1.387       .  A
C332        H337   1.083       .  S
C333        C334   1.412   1_556  A
C334        H338   1.084       .  S
C339        C340   1.403       .  A
C339        C344   1.391       .  A
C339        H345   1.084       .  S
C340        C341   1.396       .  A
C341        C342   1.381       .  A
C341        H346   1.084       .  S
C342        C343   1.399       .  A
C342        H347   1.084       .  S
C343        C344   1.397       .  A
C344        H348   1.083       .  S
C349        C350   1.408   1_455  A
C349        C354   1.383       .  A
C349        H355   1.083       .  S
C350        C351   1.397       .  A
C351        C352   1.399       .  A
C351        H356   1.083       .  S
C352        C353   1.414   1_655  A
C352        H357   1.083       .  S
C353        C354   1.393       .  A
C354        H358   1.082       .  S
C359        C360   1.393       .  A
C359        C364   1.391       .  A
C359        H365   1.083       .  S
C360        C361   1.404   1_554  A
C361        C362   1.384       .  A
C361        H366   1.080       .  S
C362        C363   1.394       .  A
C362        H367   1.083       .  S
C363        C364   1.412   1_556  A
C364        H368   1.083       .  S
C369        C370   1.396       .  A
C369        C374   1.390       .  A
C369        H375   1.083       .  S
C370        C371   1.399       .  A
C371        C372   1.379       .  A
C371        H376   1.084       .  S
C372        C373   1.395       .  A
C372        H377   1.084       .  S
C373        C374   1.403       .  A
C374        H378   1.084       .  S
C379        C380   1.396       .  A
C379        C384   1.384       .  A
C379        H385   1.084       .  S
C380        C381   1.403       .  A
C381        C382   1.386       .  A
C381        H386   1.084       .  S
C382        C383   1.395       .  A
C382        H387   1.083       .  S
C383        C384   1.400       .  A
C384        H388   1.084       .  S
C389        C390   1.393       .  A
C389        C394   1.392       .  A
C389        H395   1.083       .  S
C390        C391   1.414   1_545  A
C391        C392   1.382       .  A
C391        H396   1.082       .  S
C392        C393   1.386       .  A
C392        H397   1.084       .  S
C393        C394   1.414   1_565  A
C394        H398   1.083       .  S
C399        C400   1.393   1_565  A
C399        C404   1.385   1_565  A
C399        H405   1.083       .  S
C400        C401   1.412       .  A
C401        C402   1.386       .  A
C401        H406   1.084       .  S
C402        C403   1.391       .  A
C402        H407   1.084       .  S
C403        C404   1.405       .  A
C404        H408   1.084       .  S
C409        C410   1.399       .  A
C409        C414   1.382       .  A
C409        H415   1.083   1_545  S
C410        C411   1.406       .  A
C411        C412   1.391       .  A
C411        H416   1.083       .  S
C412        C413   1.397       .  A
C412        H417   1.083       .  S
C413        C414   1.400       .  A
C414        H418   1.084   1_545  S
C419        C420   1.401       .  A
C419        C424   1.388       .  A
C419        H425   1.084       .  S
C420        C421   1.397       .  A
C421        C422   1.380       .  A
C421        H426   1.084       .  S
C422        C423   1.398       .  A
C422        H427   1.084   1_655  S
C423        C424   1.396       .  A
C424        H428   1.083       .  S
C429        C430   1.394       .  A
C429        C434   1.392       .  A
C429        H435   1.083       .  S
C430        C431   1.404       .  A
C431        C432   1.383   1_655  A
C431        H436   1.084       .  S
C432        C433   1.396       .  A
C432        H437   1.082       .  S
C433        C434   1.411   1_455  A
C434        H438   1.083       .  S
C439        C440   1.412       .  A
C439        C444   1.414       .  A
C439        H445   1.083       .  S
C440        C441   1.409       .  A
C441        C442   1.405       .  A
C441        H446   1.083       .  S
C442        C443   1.410       .  A
C442        H447   1.082       .  S
C443        C444   1.411       .  A
C444        H448   1.083       .  S
C449        C450   1.413       .  A
C449        C454   1.413       .  A
C449        H455   1.083       .  S
C450        C451   1.407       .  A
C451        C452   1.403       .  A
C451        H456   1.083       .  S
C452        C453   1.412       .  A
C452        H457   1.083       .  S
C453        C454   1.409       .  A
C454        H458   1.083       .  S
C459        C460   1.407       .  A
C459        C464   1.407       .  A
C459        H465   1.083       .  S
C460        C461   1.414       .  A
C461        C462   1.414       .  A
C461        H466   1.083       .  S
C462        C463   1.409       .  A
C462        H467   1.083       .  S
C463        C464   1.413       .  A
C464        H468   1.083       .  S
C469        C470   1.410       .  A
C469        C474   1.412       .  A
C469        H475   1.083       .  S
C470        C471   1.409       .  A
C471        C472   1.402       .  A
C471        H476   1.083       .  S
C472        C473   1.408       .  A
C472        H477   1.083       .  S
C473        C474   1.411       .  A
C474        H478   1.083       .  S
C479        C480   1.411       .  A
C479        C484   1.416       .  A
C479        H485   1.083       .  S
C480        C481   1.412       .  A
C481        C482   1.406       .  A
C481        H486   1.083       .  S
C482        C483   1.408       .  A
C482        H487   1.083       .  S
C483        C484   1.414       .  A
C484        H488   1.083       .  S
C489        C490   1.416       .  A
C489        C494   1.412       .  A
C489        H495   1.083       .  S
C490        C491   1.403       .  A
C491        C492   1.401       .  A
C491        H496   1.083       .  S
C492        C493   1.413       .  A
C492        H497   1.078       .  S
C493        C494   1.407       .  A
C494        H498   1.083       .  S
C499        C500   1.414       .  A
C499        C504   1.418       .  A
C499        H505   1.083       .  S
C500        C501   1.411       .  A
C501        C502   1.408       .  A
C501        H506   1.083       .  S
C502        C503   1.411       .  A
C502        H507   1.083       .  S
C503        C504   1.413       .  A
C504        H508   1.083       .  S
C509        C510   1.415       .  A
C509        C514   1.414       .  A
C509        H515   1.083       .  S
C510        C511   1.408       .  A
C511        C512   1.408       .  A
C511        H516   1.083       .  S
C512        C513   1.414       .  A
C512        H517   1.082       .  S
C513        C514   1.409       .  A
C514        H518   1.083       .  S
C519        C520   1.408       .  A
C519        C524   1.409       .  A
C519        H525   1.083       .  S
C520        C521   1.417       .  A
C521        C522   1.419       .  A
C521        H526   1.083       .  S
C522        C523   1.411       .  A
C522        H527   1.083       .  S
C523        C524   1.414       .  A
C524        H528   1.082       .  S
C529        C530   1.409       .  A
C529        C534   1.406       .  A
C529        H535   1.083       .  S
C530        C531   1.411       .  A
C531        C532   1.409       .  A
C531        H536   1.083       .  S
C532        C533   1.410       .  A
C532        H537   1.083       .  S
C533        C534   1.410       .  A
C534        H538   1.083       .  S
C539        C540   1.408       .  A
C539        C544   1.408       .  A
C539        H545   1.083       .  S
C540        C541   1.412       .  A
C541        C542   1.409       .  A
C541        H546   1.083       .  S
C542        C543   1.409       .  A
C542        H547   1.083       .  S
C543        C544   1.412       .  A
C544        H548   1.083       .  S
C549        C550   1.410       .  A
C549        C554   1.408       .  A
C549        H555   1.083       .  S
C550        C551   1.411       .  A
C551        C552   1.412       .  A
C551        H556   1.083       .  S
C552        C553   1.411       .  A
C552        H557   1.083       .  S
C553        C554   1.410       .  A
C554        H558   1.083       .  S
C559        C560   1.412       .  A
C559        C564   1.410       .  A
C559        H565   1.083       .  S
C560        C561   1.411       .  A
C561        C562   1.413       .  A
C561        H566   1.083       .  S
C562        C563   1.412       .  A
C562        H567   1.083       .  S
C563        C564   1.410       .  A
C564        H568   1.083       .  S
C569        C570   1.407       .  A
C569        C574   1.408       .  A
C569        H575   1.083       .  S
C570        C571   1.414       .  A
C571        C572   1.411       .  A
C571        H576   1.083       .  S
C572        C573   1.408       .  A
C572        H577   1.083       .  S
C573        C574   1.414       .  A
C574        H578   1.082       .  S
C579        C580   1.409       .  A
C579        C584   1.408       .  A
C579        H585   1.083       .  S
C580        C581   1.410       .  A
C581        C582   1.406       .  A
C581        H586   1.083       .  S
C582        C583   1.409       .  A
C582        H587   1.083       .  S
C583        C584   1.410       .  A
C584        H588   1.083       .  S
C589        C590   1.409       .  A
C589        C594   1.408       .  A
C589        H595   1.083       .  S
C590        C591   1.411       .  A
C591        C592   1.408       .  A
C591        H596   1.083       .  S
C592        C593   1.409       .  A
C592        H597   1.083       .  S
C593        C594   1.411       .  A
C594        H598   1.083       .  S
C599        C600   1.410       .  A
C599        C604   1.412       .  A
C599        H605   1.083       .  S
C600        C601   1.412       .  A
C601        C602   1.409       .  A
C601        H606   1.083       .  S
C602        C603   1.409       .  A
C602        H607   1.083       .  S
C603        C604   1.413       .  A
C604        H608   1.083       .  S
C609        C610   1.409       .  A
C609        C614   1.410       .  A
C609        H615   1.083       .  S
C610        C611   1.413       .  A
C611        C612   1.412       .  A
C611        H616   1.083       .  S
C612        C613   1.410       .  A
C612        H617   1.083       .  S
C613        C614   1.413       .  A
C614        H618   1.083       .  S
C619        C620   1.412       .  A
C619        C624   1.416       .  A
C619        H625   1.083       .  S
C620        C621   1.412       .  A
C621        C622   1.406       .  A
C621        H626   1.083       .  S
C622        C623   1.409       .  A
C622        H627   1.082       .  S
C623        C624   1.414       .  A
C624        H628   1.083       .  S
C629        C630   1.411       .  A
C629        C634   1.417       .  A
C629        H635   1.083       .  S
C630        C631   1.414       .  A
C631        C632   1.410       .  A
C631        H636   1.083       .  S
C632        C633   1.409       .  A
C632        H637   1.083       .  S
C633        C634   1.415       .  A
C634        H638   1.083       .  S
C639        C640   1.405       .  A
C639        C644   1.405       .  A
C639        H645   1.083       .  S
C640        C641   1.416       .  A
C641        C642   1.414       .  A
C641        H646   1.083       .  S
C642        C643   1.408       .  A
C642        H647   1.083       .  S
C643        C644   1.415       .  A
C644        H648   1.083       .  S
C649        C650   1.412       .  A
C649        C654   1.413       .  A
C649        H655   1.083       .  S
C650        C651   1.411       .  A
C651        C652   1.410       .  A
C651        H656   1.083       .  S
C652        C653   1.412       .  A
C652        H657   1.083       .  S
C653        C654   1.411       .  A
C654        H658   1.083       .  S
C659        C660   1.405       .  A
C659        C664   1.405       .  A
C659        H665   1.083       .  S
C660        C661   1.414       .  A
C661        C662   1.411       .  A
C661        H666   1.083       .  S
C662        C663   1.408       .  A
C662        H667   1.083       .  S
C663        C664   1.413       .  A
C664        H668   1.083       .  S
C669        C670   1.412       .  A
C669        C674   1.406       .  A
C669        H675   1.083       .  S
C670        C671   1.407       .  A
C671        C672   1.406       .  A
C671        H676   1.083       .  S
C672        C673   1.411       .  A
C672        H677   1.083       .  S
C673        C674   1.407       .  A
C674        H678   1.083       .  S
