geometry optimzed in LAMMPS
_audit_creation_date              2020-12-01 
_audit_creation_method            'lammps2cif' 
_symmetry_space_group_name_H-M    'P1' 
_symmetry_Int_Tables_number       1 
_symmetry_cell_setting            triclinic 
loop_ 
_symmetry_equiv_pos_as_xyz 
  x,y,z 
_cell_length_a                    38.40559575 
_cell_length_b                    38.29438817704375 
_cell_length_c                    38.33274569707877 
_cell_angle_alpha                 90.0129559678841 
_cell_angle_beta                  90.10850456437281 
_cell_angle_gamma                 89.89467963827343 
loop_ 
_atom_site_label 
_atom_site_type_symbol 
_atom_site_fract_x 
_atom_site_fract_y 
_atom_site_fract_z 
_atom_site_charge 
C1          C  0.33332658  0.21487955  0.52627599     0.79000
N2          N  0.32970263  0.23021846  0.49467097    -0.79300
C3          C  0.34080360  0.21397203  0.46534583     0.81400
N4          N  0.35576833  0.18218495  0.46803759    -0.79300
C5          C  0.35935249  0.16645980  0.49919328     0.81500
N6          N  0.34770224  0.18256633  0.52820087    -0.81000
C7          C  0.14746186  0.40472685  0.46480674     0.79000
N8          N  0.11643429  0.42256904  0.46556038    -0.79300
C9          C  0.10152257  0.43242559  0.49642997     0.81400
N10         N  0.11719924  0.42255697  0.52671881    -0.79300
C11         C  0.14749737  0.40386753  0.52662701     0.81500
N12         N  0.16263150  0.39526320  0.49560451    -0.81000
C13         C  0.13760312  0.52832878  0.36584334     0.79000
N14         N  0.15027074  0.55986952  0.35637623    -0.79300
C15         C  0.13071591  0.58914395  0.35970948     0.81400
N16         N  0.09819314  0.58644753  0.37288030    -0.79300
C17         C  0.08556168  0.55526369  0.38290603     0.81500
N18         N  0.10498564  0.52639686  0.37878115    -0.81000
C19         C  0.32010958  0.52798412  0.17345078     0.79000
N20         N  0.33853543  0.52652626  0.14286017    -0.79300
C21         C  0.34762896  0.55641662  0.12546493     0.81400
N22         N  0.33713173  0.58787822  0.13891312    -0.79300
C23         C  0.31906192  0.58988965  0.16971169     0.81500
N24         N  0.31060342  0.55973345  0.18653475    -0.81000
C25         C  0.48710767  0.21353112  0.35094858     0.79000
N26         N  0.48574312  0.18222091  0.36755693    -0.79300
C27         C  0.45535523  0.16818208  0.37857555     0.81400
N28         N  0.42509805  0.18627879  0.37269474    -0.79300
C29         C  0.42600598  0.21866065  0.35711064     0.81500
N30         N  0.45701645  0.23146949  0.34591631    -0.81000
C31         C  0.45853766  0.42330006  0.17620112     0.79000
N32         N  0.45939008  0.44171449  0.14611257    -0.79300
C33         C  0.48953952  0.44950625  0.12990439     0.81400
N34         N  0.52025288  0.43866768  0.14420159    -0.79300
C35         C  0.51992910  0.42106286  0.17525882     0.81500
N36         N  0.48907771  0.41279316  0.19042019    -0.81000
C37         C  0.11676715  0.37855485  0.96534473     0.79000
N38         N  0.09978671  0.41013349  0.96576979    -0.79300
C39         C  0.09031614  0.42571539  0.99647584     0.81400
N40         N  0.09952302  0.40991662  0.02704086    -0.79300
C41         C  0.11708887  0.37882511  0.02728777     0.81500
N42         N  0.12543354  0.36327239  0.99634332    -0.81000
C43         C  0.31441584  0.18663072  0.96749045     0.79000
N44         N  0.30058050  0.19969420  0.99705744    -0.79300
C45         C  0.31742235  0.19677702  0.02773013     0.81400
N46         N  0.34861969  0.18035408  0.02923805    -0.79300
C47         C  0.36262294  0.16693146  0.99979376     0.81500
N48         N  0.34562809  0.17028585  0.96909478    -0.81000
O49         O  0.10974455  0.33638957  0.75641481    -0.89400
C50         C  0.24174185  0.24965880  0.63796168     1.10600
O51         O  0.18662073  0.33194726  0.74674997    -1.37200
O52         O  0.16996762  0.22067770  0.67520695    -0.90900
O53         O  0.13621871  0.37766553  0.78681146    -0.91600
O54         O  0.16878876  0.29135768  0.81909773    -0.80400
O55         O  0.14039873  0.28373693  0.70878765    -1.02500
C56         C  0.23400418  0.21607650  0.78684774     1.20700
O57         O  0.24424507  0.30071364  0.77348837    -1.37400
Mn58       Mn  0.23747657  0.32469922  0.72297437     1.82100
O59         O  0.20408622  0.22912020  0.79241067    -0.79500
O60         O  0.20252472  0.19723803  0.71699036    -0.88900
C61         C  0.29997027  0.28170024  0.69913815     1.11800
C62         C  0.17670972  0.19601213  0.69654957     1.06500
O63         O  0.26389694  0.37368004  0.73606900    -0.80400
O64         O  0.21272703  0.27414114  0.71607849    -1.34100
O65         O  0.23985390  0.37152755  0.78532726    -0.99600
C66         C  0.27115983  0.26642156  0.84984742     1.05200
Mn67       Mn  0.24481415  0.23042518  0.71432424     1.48600
O68         O  0.24875915  0.29072520  0.85174564    -0.88800
Mn69       Mn  0.18875856  0.37355022  0.78214830     1.49600
O70         O  0.14548331  0.38949347  0.70929710    -0.92700
C71         C  0.12575286  0.26266597  0.72736287     1.18400
C72         C  0.16623031  0.41390042  0.71813036     1.10400
Mn73       Mn  0.19170700  0.27961199  0.76833852     1.81000
O74         O  0.28536441  0.26193480  0.71916460    -0.97800
Mn75       Mn  0.14348583  0.33474809  0.71337200     1.49300
C76         C  0.11166162  0.35619076  0.78294649     1.07000
Mn77       Mn  0.28686077  0.26678396  0.77024721     1.49900
C78         C  0.32554808  0.32832655  0.79636703     1.09900
O79         O  0.19551734  0.33910609  0.81978523    -1.03600
O80         O  0.24412235  0.22668009  0.66136079    -0.93300
C81         C  0.17435114  0.32030653  0.83410380     1.21100
O82         O  0.25138755  0.23100530  0.76495923    -1.04000
O83         O  0.21772491  0.27244456  0.63841662    -0.91400
O84         O  0.32388667  0.30616905  0.77179178    -0.91000
O85         O  0.18836449  0.41054260  0.74253130    -0.91100
Mn86       Mn  0.17702719  0.27519602  0.67473046     1.47900
O87         O  0.28672751  0.31199810  0.69708580    -0.79500
C88         C  0.26146347  0.38551852  0.76696027     1.14200
O89         O  0.14046300  0.25692186  0.75655906    -0.78300
O90         O  0.22534777  0.34920185  0.67398553    -0.77900
Mn91       Mn  0.24649722  0.33239346  0.81761728     1.51100
O92         O  0.28932990  0.26107647  0.82293607    -0.90200
O93         O  0.17519892  0.32653860  0.67403160    -0.97800
O94         O  0.30030887  0.33525562  0.81637726    -0.92800
C95         C  0.19578870  0.34612822  0.65976887     1.12000
C96         C  0.10463077  0.02698556  0.33077516     0.79000
N97         N  0.11324756  0.05790217  0.31636114    -0.79300
C98         C  0.10570308  0.08822092  0.33266167     0.81400
N99         N  0.08994969  0.08747276  0.36446953    -0.79300
C100        C  0.08015933  0.05642659  0.37854057     0.81500
N101        N  0.08774583  0.02640836  0.36170800    -0.81000
C102        C  0.30344839  0.02893639  0.14352613     0.79000
N103        N  0.33389506  0.02863870  0.12507780    -0.79300
C104        C  0.34928582  0.05887354  0.11431132     0.81400
N105        N  0.33344076  0.09001296  0.12219433    -0.79300
C106        C  0.30230845  0.09104524  0.13990492     0.81500
N107        N  0.28788317  0.06024808  0.15063447    -0.81000
O108        O  0.25220400  0.82110701  0.13868756    -0.89400
C109        C  0.16749642  0.70576690  0.27364925     1.10600
O110        O  0.25297492  0.81198815  0.21643992    -1.37200
O111        O  0.14043093  0.74340396  0.20753058    -0.90900
O112        O  0.29624975  0.85071895  0.16258884    -0.91600
O113        O  0.21641222  0.88608858  0.20076667    -0.80400
O114        O  0.20089541  0.77696195  0.17555131    -1.02500
C115        C  0.13959172  0.85913431  0.26628111     1.20700
O116        O  0.22618994  0.84072610  0.27474649    -1.37400
Mn117      Mn  0.24622569  0.78816451  0.26746528     1.82100
O118        O  0.15348983  0.86274024  0.23650853    -0.79500
O119        O  0.11535019  0.78612283  0.23814045    -0.88900
C120        C  0.20237528  0.76751344  0.32919075     1.11800
C121        C  0.11442629  0.76200938  0.21540910     1.06500
O122        O  0.29687666  0.79676639  0.29111153    -0.80400
O123        O  0.19462847  0.78477981  0.24510338    -1.34100
O124        O  0.29867586  0.84594156  0.26692690    -0.99600
C125        C  0.20167366  0.92044499  0.30267680     1.05200
Mn126      Mn  0.15186499  0.78636228  0.27857719     1.48600
O127        O  0.22610327  0.91960390  0.28061450    -0.88800
Mn128      Mn  0.29668672  0.84445457  0.21633353     1.49600
O129        O  0.30428962  0.77436251  0.16901906    -0.92700
C130        C  0.17895079  0.79491062  0.16183762     1.18400
C131        C  0.32819163  0.77637829  0.19165371     1.10400
Mn132      Mn  0.20244032  0.83644461  0.22353202     1.81000
O133        O  0.18553222  0.79053801  0.31569252    -0.97800
Mn134      Mn  0.25102355  0.77904004  0.17309967     1.49300
C135        C  0.27560684  0.84446129  0.13744767     1.07000
Mn136      Mn  0.19235605  0.84079343  0.31738477     1.49900
C137        C  0.26095023  0.85655987  0.35419029     1.09900
O138        O  0.26615130  0.88465924  0.22487437    -1.03600
O139        O  0.14967099  0.73265594  0.28086127    -0.93300
C140        C  0.24621007  0.89969647  0.20492852     1.21100
O141        O  0.15294093  0.83726138  0.28495349    -1.04000
O142        O  0.19077790  0.70561328  0.25026357    -0.91400
O143        O  0.23360607  0.83815621  0.35237286    -0.91000
O144        O  0.32908572  0.80085159  0.21384182    -0.91100
Mn145      Mn  0.19379709  0.74237226  0.21074977     1.47900
O146        O  0.23253890  0.76274093  0.31660856    -0.79500
C147        C  0.31259264  0.82542456  0.28680095     1.14200
O148        O  0.17612605  0.82550144  0.17402379    -0.78300
O149        O  0.26831227  0.73754308  0.25432105    -0.77900
Mn150      Mn  0.26358385  0.88097356  0.27609195     1.51100
O151        O  0.19193996  0.89442929  0.32035054    -0.90200
O152        O  0.24441457  0.73936831  0.20501906    -0.97800
O153        O  0.26985755  0.87750434  0.33004883    -0.92800
C154        C  0.26431455  0.72396728  0.22446929     1.12000
C155        C  0.96301829  0.21204352  0.33960112     0.79000
N156        N  0.96240180  0.19201925  0.36862940    -0.79300
C157        C  0.99153542  0.17663334  0.38116643     0.81400
N158        N  0.02216908  0.18064440  0.36346863    -0.79300
C159        C  0.02284459  0.19980960  0.33315089     0.81500
N160        N  0.99317778  0.21548576  0.32169246    -0.81000
C161        C  0.98766370  0.38271855  0.13650218     0.79000
N162        N  0.95707702  0.36698515  0.14396126    -0.79300
C163        C  0.92663752  0.37995891  0.13133464     0.81400
N164        N  0.92667984  0.41008220  0.11233080    -0.79300
C165        C  0.95746545  0.42574063  0.10444865     0.81500
N166        N  0.98757891  0.41206508  0.11684705    -0.81000
O167        O  0.80921722  0.26707333  0.31634282    -0.89400
C168        C  0.61611021  0.24482689  0.27791873     1.10600
O169        O  0.75295064  0.30559870  0.27571394    -1.37200
O170        O  0.69353306  0.19371257  0.24182205    -0.90900
O171        O  0.83282397  0.30535925  0.27956754    -0.91600
O172        O  0.79405552  0.29689780  0.20006789    -0.80400
O173        O  0.74792703  0.23310531  0.28264853    -1.02500
C174        C  0.70604066  0.26500543  0.16065627     1.20700
O175        O  0.72169325  0.33497749  0.21807219    -1.37400
Mn176      Mn  0.70080828  0.32619579  0.26986063     1.82100
O177        O  0.73545201  0.26140193  0.17445479    -0.79500
O178        O  0.65645031  0.21943502  0.20494286    -0.88900
C179        C  0.63549970  0.34324631  0.23178288     1.11800
C180        C  0.67255530  0.19276502  0.21609317     1.06500
O181        O  0.71018367  0.37546871  0.29435484    -0.80400
O182        O  0.69515147  0.27454696  0.24683526    -1.34100
O183        O  0.75808513  0.37792937  0.26820577    -0.99600
C184        C  0.74846306  0.36341200  0.13688448     1.05200
Mn185      Mn  0.65293440  0.27281447  0.21224846     1.48600
O186        O  0.76107850  0.37796891  0.16377354    -0.88800
Mn187      Mn  0.79314193  0.34252008  0.27632820     1.49600
O188        O  0.75793987  0.30789085  0.35583905    -0.92700
C189        C  0.76883444  0.22105720  0.26222690     1.18400
C190        C  0.77701843  0.33490017  0.35711909     1.10400
Mn191      Mn  0.74579248  0.28410756  0.22388232     1.81000
O192        O  0.64940345  0.32359013  0.21126805    -0.97800
Mn193      Mn  0.75520530  0.26976049  0.31706486     1.49300
C194        C  0.83506569  0.27954360  0.30012779     1.07000
Mn195      Mn  0.68522438  0.33486868  0.17726944     1.49900
C196        C  0.68789040  0.41484690  0.19579686     1.09900
O197        O  0.79390298  0.34557746  0.22559683    -1.03600
O198        O  0.61569297  0.26544164  0.25183887    -0.93300
C199        C  0.80795445  0.32612027  0.20505443     1.21100
O200        O  0.68559974  0.28411642  0.17523836    -1.04000
O201        O  0.64371630  0.23012007  0.28850954    -0.91400
O202        O  0.67676976  0.38780580  0.18036567    -0.91000
O203        O  0.79196132  0.34724035  0.33025988    -0.91100
Mn204      Mn  0.69714257  0.23173251  0.28121015     1.47900
O205        O  0.65069785  0.34819448  0.26039371    -0.79500
C206        C  0.73851536  0.39093315  0.28917719     1.14200
O207        O  0.77111861  0.23559235  0.23302070    -0.78300
O208        O  0.67874380  0.31369049  0.31895321    -0.77900
Mn209      Mn  0.75566595  0.37788808  0.21751228     1.51100
O210        O  0.72266479  0.34257265  0.13799899    -0.90200
O211        O  0.70459372  0.26519515  0.31837536    -0.97800
O212        O  0.71558542  0.41490490  0.21395503    -0.92800
C213        C  0.68292780  0.28391469  0.33195621     1.12000
C214        C  0.65174574  0.19129355  0.98354397     0.79000
N215        N  0.62118711  0.17383930  0.98327292    -0.79300
C216        C  0.60645992  0.16256870  0.01321663     0.81400
N217        N  0.62205384  0.16974871  0.04427118    -0.79300
C218        C  0.65315319  0.18686322  0.04472586     0.81500
N219        N  0.66741926  0.19812613  0.01441895    -0.81000
C220        C  0.81841881  0.39766467  0.00739413     0.79000
N221        N  0.81293943  0.38050467  0.97694856    -0.79300
C222        C  0.82610440  0.39260641  0.94631900     0.81400
N223        N  0.84454291  0.42343495  0.94634799    -0.79300
C224        C  0.85004918  0.44105294  0.97700289     0.81500
N225        N  0.83701834  0.42769558  0.00692638    -0.81000
C226        C  0.93407461  0.19762092  0.66996164     0.79000
N227        N  0.93584518  0.18085618  0.63832268    -0.79300
C228        C  0.96727564  0.17233468  0.62372449     0.81400
N229        N  0.99701802  0.18181081  0.64086512    -0.79300
C230        C  0.99604009  0.19842195  0.67250500     0.81500
N231        N  0.96435658  0.20625170  0.68676791    -0.81000
C232        C  0.99764923  0.38941446  0.86789769     0.79000
N233        N  0.96719296  0.37705895  0.85541960    -0.79300
C234        C  0.93796700  0.39666487  0.85655045     0.81400
N235        N  0.93879429  0.42904403  0.87092594    -0.79300
C236        C  0.96921683  0.44153378  0.88364930     0.81500
N237        N  0.99833441  0.42195416  0.88151703    -0.81000
O238        O  0.80056348  0.37097795  0.77889872    -0.89400
C239        C  0.61032440  0.33034437  0.80553083     1.10600
O240        O  0.74491908  0.32748599  0.74455755    -1.37200
O241        O  0.68906432  0.29687837  0.85484477    -0.90900
O242        O  0.82443710  0.32702727  0.74908331    -0.91600
O243        O  0.78753804  0.25082405  0.75493885    -0.80400
O244        O  0.74078212  0.33871991  0.81547517    -1.02500
C245        C  0.69857360  0.21029428  0.78437431     1.20700
O246        O  0.71357723  0.27013353  0.71644536    -1.37400
Mn247      Mn  0.69249961  0.32242690  0.72341516     1.82100
O248        O  0.72714789  0.22565985  0.79012082    -0.79500
O249        O  0.65264561  0.25724483  0.83258860    -0.88900
C250        C  0.62461569  0.28419583  0.70924975     1.11800
C251        C  0.67122412  0.26912728  0.85742415     1.06500
O252        O  0.70452276  0.34654750  0.67323983    -0.80400
O253        O  0.68754319  0.30000398  0.77558678    -1.34100
O254        O  0.75212366  0.31957992  0.67432047    -0.99600
C255        C  0.73815422  0.18986879  0.68799864     1.05200
Mn256      Mn  0.64601195  0.26427943  0.77902684     1.48600
O257        O  0.75095933  0.21582992  0.67232192    -0.88800
Mn258      Mn  0.78699292  0.32535797  0.70996442     1.49600
O259        O  0.74833305  0.40650167  0.73568652    -0.92700
C260        C  0.76191673  0.31949559  0.82911105     1.18400
C261        C  0.77145988  0.40554257  0.71210720     1.10400
Mn262      Mn  0.73820220  0.27621593  0.76753212     1.81000
O263        O  0.63992576  0.26389654  0.72833470    -0.97800
Mn264      Mn  0.74680801  0.37124091  0.77717687     1.49300
C265        C  0.82595051  0.35127030  0.77155087     1.07000
Mn266      Mn  0.67573535  0.23026241  0.71584302     1.49900
C267        C  0.67832758  0.25291693  0.63670730     1.09900
O268        O  0.78667247  0.27473195  0.70592448    -1.03600
O269        O  0.60944063  0.30342326  0.78647825    -0.93300
C270        C  0.80129595  0.25417507  0.72518871     1.21100
O271        O  0.67752281  0.22611685  0.76657631    -1.04000
O272        O  0.63744378  0.34206192  0.81996945    -0.91400
O273        O  0.66671691  0.23575258  0.66260294    -0.91000
O274        O  0.78921867  0.37855283  0.70557321    -0.91100
Mn275      Mn  0.69025543  0.33604759  0.81724885     1.47900
O276        O  0.64075830  0.31214857  0.70204113    -0.79500
C277        C  0.73469464  0.34213603  0.66061011     1.14200
O278        O  0.76376444  0.28874226  0.81685127    -0.78300
O279        O  0.66977560  0.37331222  0.73552602    -0.77900
Mn280      Mn  0.74772055  0.26917141  0.67362466     1.51100
O281        O  0.71213136  0.19120748  0.70803919    -0.90200
O282        O  0.69633611  0.37323577  0.78328925    -0.97800
O283        O  0.70731632  0.26872639  0.63746118    -0.92800
C284        C  0.67483119  0.38757208  0.76488104     1.12000
C285        C  0.12028227  0.71573675  0.98808163     0.79000
N286        N  0.12381102  0.73288658  0.01868640    -0.79300
C287        C  0.11308870  0.71840785  0.04911273     0.81400
N288        N  0.09812119  0.68584116  0.04882460    -0.79300
C289        C  0.09392982  0.66858744  0.01782839     0.81500
N290        N  0.10526448  0.68373838  0.98810048    -0.81000
C291        C  0.30662075  0.91798653  0.01081176     0.79000
N292        N  0.33461320  0.93901948  0.00929194    -0.79300
C293        C  0.34769470  0.94984848  0.97850459     0.81400
N294        N  0.33169134  0.94006564  0.94818484    -0.79300
C295        C  0.30178545  0.92065667  0.94969657     0.81500
N296        N  0.29008892  0.90905687  0.98100085    -0.81000
C297        C  0.10384065  0.00770580  0.67167447     0.79000
N298        N  0.11097478  0.03906685  0.68664394    -0.79300
C299        C  0.10110528  0.06928525  0.67100863     0.81400
N300        N  0.08451457  0.06753365  0.64006110    -0.79300
C301        C  0.07716049  0.03685447  0.62450077     0.81500
N302        N  0.08752626  0.00652308  0.63994214    -0.81000
C303        C  0.31640318  0.04414269  0.85030930     0.79000
N304        N  0.34842352  0.04633739  0.86461614    -0.79300
C305        C  0.36227717  0.07688839  0.87526007     0.81400
N306        N  0.34361139  0.10700404  0.87040131    -0.79300
C307        C  0.31067114  0.10531483  0.85629364     0.81500
N308        N  0.29765800  0.07390132  0.84611468    -0.81000
O309        O  0.33205581  0.83881319  0.74947510    -0.89400
C310        C  0.18674089  0.75080646  0.85735535     1.10600
O311        O  0.25149023  0.83505460  0.74952947    -1.37200
O312        O  0.25940234  0.72042635  0.81765640    -0.90900
O313        O  0.30844022  0.87250075  0.70856277    -0.91600
O314        O  0.26771406  0.79356848  0.67778616    -0.80400
O315        O  0.29192635  0.78327036  0.78748783    -1.02500
C316        C  0.20266534  0.72101480  0.70652462     1.20700
O317        O  0.19262825  0.80758574  0.71855318    -1.37400
Mn318      Mn  0.19931180  0.82931961  0.77055682     1.82100
O319        O  0.23213075  0.73465180  0.70282172    -0.79500
O320        O  0.22069888  0.69574021  0.78231700    -0.88900
C321        C  0.13429778  0.79107340  0.78750850     1.11800
C322        C  0.24766873  0.69393342  0.80161752     1.06500
O323        O  0.17780291  0.87956245  0.75959917    -0.80400
O324        O  0.21976753  0.77671939  0.77768259    -1.34100
O325        O  0.20394175  0.87996085  0.71140173    -0.99600
C326        C  0.16672573  0.77977154  0.63631245     1.05200
Mn327      Mn  0.18331065  0.73591241  0.77676172     1.48600
O328        O  0.18714143  0.80591959  0.63777592    -0.88800
Mn329      Mn  0.25462633  0.87656980  0.71394485     1.49600
O330        O  0.29095520  0.88788975  0.79384231    -0.92700
C331        C  0.30616764  0.76317889  0.76745961     1.18400
C332        C  0.27749996  0.91528681  0.78105866     1.10400
Mn333      Mn  0.24344124  0.78362802  0.72671036     1.81000
O334        O  0.14805695  0.77108894  0.76724670    -0.97800
Mn335      Mn  0.29191079  0.83483085  0.78644251     1.49300
C336        C  0.33451609  0.85676919  0.72172362     1.07000
Mn337      Mn  0.15002009  0.77339870  0.71661928     1.49900
C338        C  0.11332417  0.84182576  0.69447519     1.09900
O339        O  0.24415249  0.84304839  0.67711185    -1.03600
O340        O  0.17547651  0.73675448  0.82981065    -0.93300
C341        C  0.26378382  0.82260018  0.66314105     1.21100
O342        O  0.18266547  0.73560525  0.72604440    -1.04000
O343        O  0.21419288  0.76932273  0.85772243    -0.91400
O344        O  0.11296216  0.81364202  0.71203058    -0.91000
O345        O  0.26065283  0.91523589  0.75244083    -0.91100
Mn346      Mn  0.25356579  0.77406324  0.82049415     1.47900
O347        O  0.14932037  0.81973463  0.79278500    -0.79500
C348        C  0.18357544  0.89428396  0.73087332     1.14200
O349        O  0.29209541  0.75886020  0.73808291    -0.78300
O350        O  0.20956854  0.85229480  0.82047923    -0.77900
Mn351      Mn  0.19354567  0.84375674  0.67734189     1.51100
O352        O  0.15150292  0.76742191  0.66288791    -0.90200
O353        O  0.25705612  0.82507749  0.82218030    -0.97800
O354        O  0.14041069  0.85278062  0.67905314    -0.92800
C355        C  0.23780331  0.84599570  0.83588892     1.12000
C356        C  0.94334075  0.71872573  0.13320263     0.79000
N357        N  0.97411227  0.73476322  0.13834168    -0.79300
C358        C  0.00412317  0.71999898  0.12755328     0.81400
N359        N  0.00342848  0.68803500  0.11210069    -0.79300
C360        C  0.97253139  0.67201933  0.10610574     0.81500
N361        N  0.94265592  0.68730970  0.11688649    -0.81000
C362        C  0.94401310  0.91241756  0.31755119     0.79000
N363        N  0.97549781  0.90584388  0.30205511    -0.79300
C364        C  0.00598313  0.91657792  0.31735851     0.81400
N365        N  0.00449858  0.93319357  0.34908117    -0.79300
C366        C  0.97337656  0.94015203  0.36487539     0.81500
N367        N  0.94355978  0.92960864  0.34883404    -0.81000
C368        C  0.82557121  0.04175774  0.32749273     0.79000
N369        N  0.84735963  0.04082022  0.35515937    -0.79300
C370        C  0.86380613  0.06990021  0.36623043     0.81400
N371        N  0.85878811  0.10045504  0.34901654    -0.79300
C372        C  0.83764130  0.10153601  0.32041835     0.81500
N373        N  0.82083608  0.07209964  0.30994741    -0.81000
C374        C  0.64076891  0.00349093  0.13955076     0.79000
N375        N  0.65450439  0.03426182  0.15055089    -0.79300
C376        C  0.63835922  0.06492268  0.14363103     0.81400
N377        N  0.60775846  0.06446796  0.12602943    -0.79300
C378        C  0.59272504  0.03428643  0.11558301     0.81500
N379        N  0.60905414  0.00327036  0.12283556    -0.81000
O380        O  0.64637091  0.75811798  0.18499026    -0.89400
C381        C  0.83586351  0.74818683  0.22946631     1.10600
O382        O  0.69733892  0.80090608  0.22442060    -1.37200
O383        O  0.76007547  0.69429030  0.26295518    -0.90900
O384        O  0.61715050  0.79629216  0.21756697    -0.91600
O385        O  0.65146866  0.79234103  0.29914132    -0.80400
O386        O  0.70689568  0.72965515  0.21925302    -1.02500
C387        C  0.74308592  0.76300567  0.34321470     1.20700
O388        O  0.72492505  0.83204941  0.28210630    -1.37400
Mn389      Mn  0.74880413  0.82395341  0.23121806     1.82100
O390        O  0.71385960  0.75796491  0.32858745    -0.79500
O391        O  0.79503170  0.72134283  0.30055061    -0.88900
C392        C  0.81229696  0.84564637  0.27348999     1.11800
C393        C  0.77932075  0.69434361  0.28991338     1.06500
O394        O  0.73717473  0.87323480  0.20531859    -0.80400
O395        O  0.75528538  0.77352777  0.25621640    -1.34100
O396        O  0.68831553  0.87179786  0.22942410    -0.99600
C397        C  0.68882860  0.85630380  0.35792139     1.05200
Mn398      Mn  0.79638033  0.77485804  0.29295862     1.48600
O399        O  0.68289519  0.87653108  0.33252531    -0.88800
Mn400      Mn  0.65469882  0.83543404  0.22151748     1.49600
O401        O  0.69421105  0.80149843  0.14410042    -0.92700
C402        C  0.68584847  0.71498083  0.23746419     1.18400
C403        C  0.67335168  0.82716952  0.14221981     1.10400
Mn404      Mn  0.70272697  0.78013993  0.27723460     1.81000
O405        O  0.79811366  0.82630131  0.29434455    -0.97800
Mn406      Mn  0.69872222  0.76434838  0.18381331     1.49300
C407        C  0.61869215  0.76886614  0.19905566     1.07000
Mn408      Mn  0.75820197  0.83482631  0.32550250     1.49900
C409        C  0.75256780  0.91388976  0.30341897     1.09900
O410        O  0.65161897  0.84004696  0.27213529    -1.03600
O411        O  0.83489100  0.76946656  0.25489867    -0.93300
C412        C  0.63633456  0.82101510  0.29228799     1.21100
O413        O  0.76197043  0.78395159  0.32876512    -1.04000
O414        O  0.80987103  0.73144997  0.21820537    -0.91400
O415        O  0.76189455  0.88939191  0.32368988    -0.91000
O416        O  0.65680572  0.83917944  0.16808828    -0.91100
Mn417      Mn  0.75699860  0.73054305  0.22233399     1.47900
O418        O  0.79855810  0.84761701  0.24343087    -0.79500
C419        C  0.70737805  0.88670884  0.20933957     1.14200
O420        O  0.67933425  0.72949104  0.26635202    -0.78300
O421        O  0.77334133  0.81112384  0.18137503    -0.77900
Mn422      Mn  0.68931140  0.87357262  0.27954957     1.51100
O423        O  0.71570164  0.83702889  0.35935069    -0.90200
O424        O  0.74917911  0.76218197  0.18297037    -0.97800
O425        O  0.72850190  0.91072150  0.28113311    -0.92800
C426        C  0.76851429  0.78161283  0.16729057     1.12000
C427        C  0.63443646  0.91253114  0.02663378     0.79000
N428        N  0.60418005  0.93091590  0.02710239    -0.79300
C429        C  0.59277991  0.94705359  0.99780453     0.81400
N430        N  0.61177607  0.94516057  0.96834291    -0.79300
C431        C  0.64180394  0.92662023  0.96735869     0.81500
N432        N  0.65281499  0.91019863  0.99663081    -0.81000
C433        C  0.82426260  0.73023877  0.97304373     0.79000
N434        N  0.84178138  0.69908792  0.97215724    -0.79300
C435        C  0.85247272  0.68275820  0.00196796     0.81400
N436        N  0.84427050  0.69766925  0.03343260    -0.79300
C437        C  0.82674152  0.72893961  0.03493456     0.81500
N438        N  0.81668625  0.74478579  0.00461406    -0.81000
C439        C  0.82979471  0.08024538  0.65580255     0.79000
N440        N  0.82558296  0.04854485  0.67062503    -0.79300
C441        C  0.83910824  0.01965019  0.65550493     0.81400
N442        N  0.85649429  0.02289829  0.62506057    -0.79300
C443        C  0.86054040  0.05443878  0.60990934     0.81500
N444        N  0.84703504  0.08313204  0.62515973    -0.81000
C445        C  0.65122876  0.07868786  0.84630824     0.79000
N446        N  0.62043994  0.08064277  0.86407062    -0.79300
C447        C  0.60380234  0.05123818  0.87525783     0.81400
N448        N  0.61810115  0.01930060  0.86738335    -0.79300
C449        C  0.64916218  0.01681562  0.84977049     0.81500
N450        N  0.66524561  0.04673432  0.83917233    -0.81000
C451        C  0.98433756  0.91064845  0.65753451     0.79000
N452        N  0.95451457  0.90406759  0.67536583    -0.79300
C453        C  0.92285871  0.91226241  0.66148108     0.81400
N454        N  0.92120129  0.92678032  0.62856956    -0.79300
C455        C  0.95130365  0.93394480  0.61081699     0.81500
N456        N  0.98197101  0.92532842  0.62564615    -0.81000
C457        C  0.95894222  0.73067041  0.86454757     0.79000
N458        N  0.96007668  0.69984522  0.88151789    -0.79300
C459        C  0.99056433  0.68465797  0.89040819     0.81400
N460        N  0.02111865  0.70025460  0.88114878    -0.79300
C461        C  0.02021211  0.73178193  0.86429745     0.81500
N462        N  0.98916084  0.74634781  0.85562858    -0.81000
N463        N  0.95189287  0.98225026  0.44573545    -0.07400
N464        N  0.94169813  0.96875698  0.41546879    -0.59500
N465        N  0.97670359  0.97421944  0.53131680    -0.07000
N466        N  0.98456831  0.95756471  0.56043398    -0.61600
N467        N  0.94272911  0.97733585  0.52839210    -0.06600
N468        N  0.92686548  0.96290390  0.55569832    -0.59500
N469        N  0.98585606  0.97945371  0.44902950    -0.06300
N470        N  0.99940678  0.96415202  0.42102593    -0.62000
C471        C  0.97159069  0.95745274  0.40013225     0.94800
C472        C  0.95344116  0.95036517  0.57548352     0.94600
N473        N  0.04047314  0.06122407  0.54399006    -0.07500
N474        N  0.05466306  0.06974606  0.57405565    -0.60100
N475        N  0.04502341  0.03401630  0.46010384    -0.05700
N476        N  0.05670783  0.02412294  0.42929751    -0.61300
N477        N  0.04792315  0.06815907  0.46348908    -0.07600
N478        N  0.06157698  0.08196452  0.43508412    -0.60300
N479        N  0.03820152  0.02699114  0.54118796    -0.05300
N480        N  0.05093579  0.01164107  0.56951174    -0.61400
Mn481      Mn  0.01259934  0.00251379  0.49549230     1.18400
C482        C  0.06109269  0.03878361  0.58970876     0.96900
C483        C  0.06686952  0.05425522  0.41412197     0.97600
N484        N  0.89381275  0.04134141  0.52620559    -0.07600
N485        N  0.87994786  0.02819312  0.55468227    -0.63900
N486        N  0.90433822  0.08089335  0.44815698    -0.06400
N487        N  0.89230242  0.09561550  0.41926470    -0.64600
N488        N  0.90168814  0.04665320  0.44606436    -0.07100
N489        N  0.88786535  0.03744969  0.41603550    -0.64200
N490        N  0.89628551  0.07557547  0.52884015    -0.06000
N491        N  0.88395729  0.08628941  0.55908817    -0.64900
Mn492      Mn  0.92121009  0.01106917  0.48630144     1.10700
C493        C  0.87402095  0.05644521  0.57473012     0.98100
C494        C  0.88233898  0.06804084  0.39952856     0.98200
N495        N  0.99875292  0.13114883  0.46203449    -0.07100
N496        N  0.01480929  0.14559636  0.43495817    -0.62500
N497        N  0.95545937  0.12988157  0.54064989    -0.06400
N498        N  0.94180535  0.14658170  0.56783561    -0.59200
N499        N  0.98934646  0.12660485  0.54459233    -0.07700
N500        N  0.99932732  0.14126224  0.57443289    -0.62000
N501        N  0.96483588  0.13410457  0.45860972    -0.06700
N502        N  0.95709430  0.15073385  0.42945595    -0.59200
Mn503      Mn  0.02040958  0.09756051  0.50408514     1.20200
Mn504      Mn  0.92906746  0.10623896  0.49393124     1.10100
Cl505      Cl  0.97082758  0.05433629  0.49509940    -0.87200
C506        C  0.98837625  0.15781056  0.41485417     0.95100
C507        C  0.96942082  0.15374729  0.58891262     0.94900
N508        N  0.94645460  0.50836142  0.06448582    -0.07400
N509        N  0.93173910  0.47965771  0.07691840    -0.59500
N510        N  0.98646548  0.58702140  0.07422728    -0.07000
N511        N  0.99959981  0.61600874  0.08747012    -0.61600
N512        N  0.95228604  0.58951633  0.07190393    -0.06600
N513        N  0.94166701  0.62007883  0.08365383    -0.59500
N514        N  0.98059563  0.50608046  0.06696683    -0.06300
N515        N  0.98974619  0.47604425  0.08095367    -0.62000
C516        C  0.95921031  0.45979304  0.08696474     0.94800
C517        C  0.97135852  0.63620362  0.09319807     0.94600
N518        N  0.05296122  0.59025207  0.99096224    -0.07500
N519        N  0.07000367  0.61913085  0.98321844    -0.60100
N520        N  0.04444213  0.50516985  0.01605884    -0.05700
N521        N  0.05916188  0.47564656  0.02677717    -0.61300
N522        N  0.04722612  0.50814958  0.98198086    -0.07600
N523        N  0.06387386  0.48055841  0.96894042    -0.60300
N524        N  0.04983502  0.58723699  0.02495400    -0.05300
N525        N  0.06460726  0.61414127  0.04103463    -0.61400
Mn526      Mn  0.01605533  0.54606651  0.04682691     1.18400
C527        C  0.07729469  0.63378178  0.01458885     0.96900
C528        C  0.07131516  0.46030449  0.99720426     0.97600
N529        N  0.89725121  0.60080955  0.01330465    -0.07600
N530        N  0.88000987  0.62755891  0.02720954    -0.63900
N531        N  0.89575296  0.52219835  0.96934919    -0.06400
N532        N  0.88092727  0.49517517  0.95329379    -0.64600
N533        N  0.89316843  0.51871805  0.00337528    -0.07100
N534        N  0.87645726  0.48964620  0.01111840    -0.64200
N535        N  0.90020604  0.60494181  0.97938245    -0.06000
N536        N  0.88474625  0.63447201  0.96959957    -0.64900
Mn537      Mn  0.92126367  0.55416113  0.03939854     1.10700
C538        C  0.87216121  0.64856578  0.99969510     0.98100
C539        C  0.86880662  0.47507251  0.97981571     0.98200
N540        N  0.99221939  0.52103689  0.92204452    -0.07100
N541        N  0.00195247  0.49094837  0.90853381    -0.62500
N542        N  0.96561328  0.60476887  0.92806924    -0.06400
N543        N  0.95733824  0.63492065  0.91380640    -0.59200
N544        N  0.99977107  0.60149695  0.93008217    -0.07700
N545        N  0.01527150  0.62960703  0.91716927    -0.62000
N546        N  0.95822891  0.52494896  0.91905874    -0.06700
N547        N  0.94430504  0.49766223  0.90340554    -0.59200
Mn548      Mn  0.02413154  0.55516667  0.95512383     1.20200
Mn549      Mn  0.92914735  0.56476927  0.94776188     1.10100
Cl550      Cl  0.97265521  0.55505168  0.99720052    -0.87200
C551        C  0.97185859  0.47689015  0.89699991     0.95100
C552        C  0.98834262  0.65016489  0.90714832     0.94900
N553        N  0.44611144  0.13376432  0.98376814    -0.07400
N554        N  0.41725221  0.14784555  0.97140072    -0.59500
N555        N  0.52415117  0.12281494  0.02305913    -0.07000
N556        N  0.55255704  0.13534906  0.03814550    -0.61600
N557        N  0.52645762  0.12562142  0.98885211    -0.06600
N558        N  0.55626715  0.14002285  0.98006987    -0.59500
N559        N  0.44420729  0.13112416  0.01801849    -0.06300
N560        N  0.41439951  0.14358319  0.02951009    -0.62000
C561        C  0.39800431  0.15378093  0.00024110     0.94800
C562        C  0.57225786  0.14588695  0.01089537     0.94600
N563        N  0.51027682  0.02731212  0.07268839    -0.07500
N564        N  0.53752632  0.01098067  0.08673952    -0.60100
N565        N  0.43181310  0.07144805  0.07150118    -0.05700
N566        N  0.40461567  0.08507462  0.08819677    -0.61300
N567        N  0.42789226  0.03751723  0.06803720    -0.07600
N568        N  0.39817285  0.02742922  0.08255013    -0.60300
N569        N  0.51386345  0.06129613  0.07566438    -0.05300
N570        N  0.54328316  0.06878625  0.09179707    -0.61400
Mn571      Mn  0.47868659  0.09771838  0.04812843     1.18400
C572        C  0.55788999  0.03732974  0.09873868     0.96900
C573        C  0.38364231  0.05731790  0.09512032     0.97600
N574        N  0.52647639  0.07490802  0.92317201    -0.07600
N575        N  0.55590819  0.08451837  0.90759410    -0.63900
N576        N  0.44110107  0.05109130  0.91581169    -0.06400
N577        N  0.41224696  0.04336795  0.89885638    -0.64600
N578        N  0.44404777  0.08511653  0.91915938    -0.07100
N579        N  0.41687829  0.10121672  0.90465754    -0.64200
N580        N  0.52245883  0.04091693  0.92034719    -0.06000
N581        N  0.54895164  0.02683147  0.90305571    -0.64900
Mn582      Mn  0.48617423  0.10625921  0.95290215     1.10700
C583        C  0.56985977  0.05421008  0.89504850     0.98100
C584        C  0.39730347  0.07465897  0.89181865     0.98200
N585        N  0.42770741  0.98725203  0.00255261    -0.07100
N586        N  0.39760707  0.97340894  0.01109062    -0.62500
N587        N  0.51132975  0.98195970  0.97529699    -0.06400
N588        N  0.54229560  0.97081750  0.96549149    -0.59200
N589        N  0.50783689  0.97852592  0.00933708    -0.07700
N590        N  0.53620801  0.96478010  0.02313812    -0.62000
N591        N  0.43034888  0.98969661  0.96836544    -0.06700
N592        N  0.40186656  0.97736399  0.95305785    -0.59200
Mn593      Mn  0.46790608  0.00635799  0.03890912     1.20200
Mn594      Mn  0.47622879  0.01476386  0.94394225     1.10100
Cl595      Cl  0.47724422  0.05632752  0.99591958    -0.87200
C596        C  0.38166977  0.96745508  0.98021053     0.95100
C597        C  0.55735241  0.96031597  0.99555989     0.94900
O598        O  0.75538186  0.68683640  0.75945963    -0.89400
C599        C  0.66491773  0.83586638  0.85412741     1.10600
O600        O  0.75150246  0.76666615  0.75495878    -1.37200
O601        O  0.63507705  0.76328027  0.82026049    -0.90900
O602        O  0.79221961  0.70945162  0.72053707    -0.91600
O603        O  0.71394805  0.74551693  0.68076044    -0.80400
O604        O  0.69870201  0.72592328  0.79445633    -1.02500
C605        C  0.64189024  0.81602860  0.70239588     1.20700
O606        O  0.72553045  0.82339423  0.72115614    -1.37400
Mn607      Mn  0.74598117  0.81997128  0.77407261     1.82100
O608        O  0.65301000  0.78482607  0.70153878    -0.79500
O609        O  0.61420449  0.79538980  0.77631104    -0.88900
C610        C  0.70454006  0.88566021  0.78936933     1.11800
C611        C  0.61081134  0.77195711  0.79945699     1.06500
O612        O  0.79663900  0.84267130  0.76086825    -0.80400
O613        O  0.69345888  0.79866168  0.77939927    -1.34100
O614        O  0.79593797  0.81374679  0.71427291    -0.99600
C615        C  0.69934044  0.84593553  0.63933858     1.05200
Mn616      Mn  0.65221731  0.83413639  0.77487240     1.48600
O617        O  0.72091782  0.82098894  0.64193631    -0.88800
Mn618      Mn  0.79408803  0.76325540  0.72108647     1.49600
O619        O  0.80458024  0.73046072  0.80259008    -0.92700
C620        C  0.67920190  0.71104853  0.77413926     1.18400
C621        C  0.83035603  0.74756568  0.79048505     1.10400
Mn622      Mn  0.70132101  0.77277334  0.72945317     1.81000
O623        O  0.68700134  0.87051332  0.76789944    -0.97800
Mn624      Mn  0.75022938  0.72773830  0.79424189     1.49300
C625        C  0.77496883  0.68442573  0.73312608     1.07000
Mn626      Mn  0.69431776  0.86787687  0.71754305     1.49900
C627        C  0.76052055  0.89994476  0.69433582     1.09900
O628        O  0.76305548  0.76880858  0.68137049    -1.03600
O629        O  0.64804716  0.84259039  0.82677750    -0.93300
C630        C  0.74393683  0.74802910  0.66729773     1.21100
O631        O  0.65575446  0.83497702  0.72377465    -1.04000
O632        O  0.68560999  0.81013480  0.85685311    -0.91400
O633        O  0.73594023  0.90200280  0.71628885    -0.91000
O634        O  0.82909265  0.76338993  0.76162682    -0.91100
Mn635      Mn  0.68941471  0.76701658  0.82374096     1.47900
O636        O  0.73397529  0.87181169  0.79539230    -0.79500
C637        C  0.80975704  0.83668716  0.73099891     1.14200
O638        O  0.67691327  0.72385187  0.74366129    -0.78300
O639        O  0.76772922  0.81076961  0.82635299    -0.77900
Mn640      Mn  0.76015606  0.81955734  0.67942250     1.51100
O641        O  0.69234689  0.86671135  0.66397641    -0.90200
O642        O  0.73997482  0.76388838  0.82774407    -0.97800
O643        O  0.76604055  0.87294770  0.67611705    -0.92800
C644        C  0.76074072  0.78264200  0.84234461     1.12000
C645        C  0.33426296  0.87767571  0.54179281     0.79000
N646        N  0.35229867  0.90834966  0.54255899    -0.79300
C647        C  0.36283674  0.92338653  0.51235243     0.81400
N648        N  0.35462591  0.90805642  0.48171355    -0.79300
C649        C  0.33726526  0.87738358  0.48042193     0.81500
N650        N  0.32694014  0.86238860  0.51071175    -0.81000
C651        C  0.13369112  0.70464741  0.50911760     0.79000
N652        N  0.15073745  0.71001919  0.47858497    -0.79300
C653        C  0.13767090  0.69765004  0.44796824     0.81400
N654        N  0.10606387  0.68084480  0.44790266    -0.79300
C655        C  0.08891486  0.67489914  0.47855265     0.81500
N656        N  0.10308698  0.68693258  0.50864203    -0.81000
C657        C  0.81829820  0.40091047  0.48706025     0.79000
N658        N  0.84943387  0.41704289  0.48889403    -0.79300
C659        C  0.86255058  0.42937748  0.51916188     0.81400
N660        N  0.84408070  0.42457086  0.54928656    -0.79300
C661        C  0.81236471  0.40790491  0.54800041     0.81500
N662        N  0.79990162  0.39635512  0.51685389    -0.81000
C663        C  0.60698992  0.22488260  0.50875293     0.79000
N664        N  0.59033094  0.19396210  0.50876296    -0.79300
C665        C  0.58183273  0.17745355  0.47895626     0.81400
N666        N  0.59118637  0.19159275  0.44782252    -0.79300
C667        C  0.60847307  0.22272059  0.44732402     0.81500
N668        N  0.61641652  0.23909680  0.47778004    -0.81000
C669        C  0.60140627  0.88483255  0.47320342     0.79000
N670        N  0.61029454  0.87053528  0.50412029    -0.79300
C671        C  0.60659035  0.88858590  0.53412577     0.81400
N672        N  0.59368411  0.92169268  0.53339885    -0.79300
C673        C  0.58374404  0.93582657  0.50252008     0.81500
N674        N  0.58840992  0.91764051  0.47278337    -0.81000
C675        C  0.79574678  0.69059231  0.53354850     0.79000
N676        N  0.82775532  0.67451954  0.53203164    -0.79300
C677        C  0.84351105  0.66743054  0.50081370     0.81400
N678        N  0.82703124  0.67741250  0.47078969    -0.79300
C679        C  0.79520532  0.69365578  0.47142005     0.81500
N680        N  0.77995687  0.70028937  0.50297397    -0.81000
C681        C  0.43591710  0.41705414  0.83827698     0.79000
N682        N  0.43656445  0.43254381  0.87023051    -0.79300
C683        C  0.46742711  0.44273298  0.88420986     0.81400
N684        N  0.49730126  0.43612117  0.86704221    -0.79300
C685        C  0.49692563  0.41931928  0.83604171     0.81500
N686        N  0.46617553  0.40988249  0.82178172    -0.81000
C687        C  0.49565205  0.22895018  0.64599798     0.79000
N688        N  0.49712755  0.19770944  0.62855184    -0.79300
C689        C  0.46743656  0.18070296  0.61832999     0.81400
N690        N  0.43583223  0.19525691  0.62681091    -0.79300
C691        C  0.43377259  0.22668017  0.64409373     0.81500
N692        N  0.46388109  0.24297026  0.65374375    -0.81000
C693        C  0.44330168  0.87707648  0.34812308     0.79000
N694        N  0.47444630  0.86181812  0.34047133    -0.79300
C695        C  0.50500123  0.87693315  0.35037332     0.81400
N696        N  0.50401404  0.90824457  0.36790196    -0.79300
C697        C  0.47299945  0.92377332  0.37659981     0.81500
N698        N  0.44287367  0.90810911  0.36590408    -0.81000
C699        C  0.43918400  0.68423351  0.16274847     0.79000
N700        N  0.47038620  0.69260574  0.17692690    -0.79300
C701        C  0.50028696  0.68769642  0.15892003     0.81400
N702        N  0.49866455  0.67396108  0.12652146    -0.79300
C703        C  0.46792872  0.66542999  0.11211671     0.81500
N704        N  0.43831939  0.67107428  0.12998490    -0.81000
C705        C  0.79764641  0.50480316  0.36693061     0.79000
N706        N  0.82809716  0.50358907  0.38549348    -0.79300
C707        C  0.84330467  0.53406742  0.39574563     0.81400
N708        N  0.82858152  0.56468431  0.38661633    -0.79300
C709        C  0.79958440  0.56630827  0.36676669     0.81500
N710        N  0.78446571  0.53610801  0.35663478    -0.81000
C711        C  0.61586856  0.60449873  0.16148729     0.79000
N712        N  0.62549400  0.57297176  0.17452284    -0.79300
C713        C  0.61900297  0.54313295  0.15680186     0.81400
N714        N  0.60284866  0.54525711  0.12570786    -0.79300
C715        C  0.59273285  0.57590576  0.11166947     0.81500
N716        N  0.59982762  0.60627507  0.12932720    -0.81000
C717        C  0.48455737  0.69793458  0.82911233     0.79000
N718        N  0.48445428  0.67756137  0.85793722    -0.79300
C719        C  0.45441997  0.66357626  0.87003212     0.81400
N720        N  0.42397013  0.67060616  0.85327803    -0.79300
C721        C  0.42413594  0.69008507  0.82350560     0.81500
N722        N  0.45439286  0.70414697  0.81198517    -0.81000
C723        C  0.46356031  0.89315512  0.65267839     0.79000
N724        N  0.46313758  0.92479395  0.63684915    -0.79300
C725        C  0.49238793  0.93918376  0.62353278     0.81400
N726        N  0.52328789  0.92170218  0.62697339    -0.79300
C727        C  0.52421404  0.88986974  0.64348491     0.81500
N728        N  0.49423673  0.87593948  0.65613387    -0.81000
C729        C  0.81499421  0.57905725  0.64050931     0.79000
N730        N  0.84604985  0.58208807  0.62420772    -0.79300
C731        C  0.86072587  0.55364512  0.60935914     0.81400
N732        N  0.84479380  0.52225680  0.61155350    -0.79300
C733        C  0.81388732  0.51914935  0.62810125     0.81500
N734        N  0.79918586  0.54777737  0.64240487    -0.81000
C735        C  0.61591154  0.57985920  0.82366446     0.79000
N736        N  0.62538451  0.54853367  0.80946504    -0.79300
C737        C  0.61695320  0.51773386  0.82536476     0.81400
N738        N  0.59888039  0.51862509  0.85631942    -0.79300
C739        C  0.58888965  0.54980783  0.87087495     0.81500
N740        N  0.59778357  0.57998765  0.85432641    -0.81000
C741        C  0.32843070  0.50418999  0.83339154     0.79000
N742        N  0.31563119  0.53496831  0.82099341    -0.79300
C743        C  0.31892696  0.56490081  0.83968807     0.81400
N744        N  0.33465232  0.56351901  0.87127060    -0.79300
C745        C  0.34774547  0.53346814  0.88446345     0.81500
N746        N  0.34427121  0.50337632  0.86561826    -0.81000
C747        C  0.14983748  0.60139349  0.63287742     0.79000
N748        N  0.16286122  0.57100686  0.64573178    -0.79300
C749        C  0.14679622  0.54028408  0.63902589     0.81400
N750        N  0.11700885  0.54032514  0.62010341    -0.79300
C751        C  0.10334903  0.57036617  0.60739230     0.81500
N752        N  0.11942095  0.60123768  0.61438459    -0.81000
N753        N  0.02078779  0.47812473  0.48316590    -0.07400
N754        N  0.04747358  0.46050496  0.46976499    -0.59500
N755        N  0.94251174  0.47623143  0.52716213    -0.07000
N756        N  0.91584506  0.46106350  0.54326736    -0.61600
N757        N  0.93953914  0.47273240  0.49319723    -0.06600
N758        N  0.91113367  0.45507802  0.48547521    -0.59500
N759        N  0.02442417  0.48123758  0.51715879    -0.06300
N760        N  0.05360659  0.46569540  0.52749301    -0.62000
C761        C  0.06793158  0.45278133  0.49770807     0.94800
C762        C  0.89652970  0.44774867  0.51674595     0.94600
N763        N  0.94138590  0.57466930  0.57336482    -0.07500
N764        N  0.91132325  0.58536523  0.58598871    -0.60100
N765        N  0.02421901  0.54638533  0.56792030    -0.05700
N766        N  0.05387221  0.53755124  0.58279055    -0.61300
N767        N  0.02164018  0.58063195  0.56538994    -0.07600
N768        N  0.04982586  0.59568791  0.57859428    -0.60300
N769        N  0.94421403  0.54045204  0.57590337    -0.05300
N770        N  0.91592449  0.52726572  0.59004114    -0.61400
Mn771      Mn  0.98423351  0.51034531  0.54829918     1.18400
C772        C  0.89591734  0.55553623  0.59615402     0.96900
C773        C  0.06964106  0.56834372  0.58924732     0.97600
N774        N  0.92762865  0.52510651  0.43226247    -0.07600
N775        N  0.89898079  0.50943310  0.42091222    -0.63900
N776        N  0.00375413  0.56655119  0.42005264    -0.06400
N777        N  0.03046310  0.58024275  0.40357756    -0.64600
N778        N  0.00751881  0.53247113  0.42306189    -0.07100
N779        N  0.03699718  0.52237494  0.40871868    -0.64200
N780        N  0.92447013  0.55931542  0.42982231    -0.06000
N781        N  0.89376258  0.56748236  0.41693040    -0.64900
Mn782      Mn  0.97396170  0.50108557  0.45683613     1.10700
C783        C  0.87809324  0.53634493  0.41159067     0.98100
C784        C  0.05070847  0.55242618  0.39664121     0.98200
N785        N  0.01036870  0.63335527  0.50401557    -0.07100
N786        N  0.03935971  0.65001692  0.51201777    -0.62500
N787        N  0.92441128  0.62486452  0.47966829    -0.06400
N788        N  0.89410675  0.63824757  0.46944655    -0.59200
N789        N  0.92812939  0.62824884  0.51360524    -0.07700
N790        N  0.90018154  0.64383010  0.52707808    -0.62000
N791        N  0.00725706  0.63016401  0.46999589    -0.06700
N792        N  0.03456409  0.64462285  0.45420672    -0.59200
Mn793      Mn  0.97549085  0.60537377  0.54012442     1.20200
Mn794      Mn  0.96461696  0.59611023  0.44864451     1.10100
Cl795      Cl  0.97469786  0.55322798  0.49844677    -0.87200
C796        C  0.05434971  0.65714026  0.48091825     0.95100
C797        C  0.87898944  0.65014806  0.49922771     0.94900
N798        N  0.49756840  0.48737991  0.04591054    -0.07400
N799        N  0.51334650  0.47542362  0.07432739    -0.59500
N800        N  0.45608792  0.47572222  0.96872394    -0.07000
N801        N  0.44220576  0.46146992  0.94062920    -0.61600
N802        N  0.49010124  0.47871832  0.96519263    -0.06600
N803        N  0.49984296  0.46652320  0.93456812    -0.59500
N804        N  0.46346736  0.48489379  0.04907592    -0.06300
N805        N  0.45551238  0.47136998  0.07962768    -0.62000
C806        C  0.48668614  0.46560115  0.09511732     0.94800
C807        C  0.46974931  0.45595047  0.91971251     0.94600
N808        N  0.38975265  0.55910588  0.96256673    -0.07500
N809        N  0.37281726  0.56697689  0.93368855    -0.60100
N810        N  0.39731534  0.53510868  0.04851664    -0.05700
N811        N  0.38161926  0.52486923  0.07768502    -0.61300
N812        N  0.39377997  0.56904152  0.04436605    -0.07600
N813        N  0.37572795  0.58244584  0.07083416    -0.60300
N814        N  0.39279231  0.52507933  0.96590336    -0.05300
N815        N  0.37807619  0.50909602  0.93876213    -0.61400
Mn816      Mn  0.42669707  0.50388817  0.00859048     1.18400
C817        C  0.36547563  0.53576273  0.91896373     0.96900
C818        C  0.36811227  0.55463259  0.09164747     0.97600
N819        N  0.54479344  0.53798143  0.95279577    -0.07600
N820        N  0.56188402  0.52410801  0.92597726    -0.63900
N821        N  0.54648505  0.58291235  0.03099264    -0.06400
N822        N  0.56163485  0.59945756  0.05752715    -0.64600
N823        N  0.54986613  0.54892815  0.03436712    -0.07100
N824        N  0.56744274  0.54166262  0.06301912    -0.64200
N825        N  0.54174817  0.57196805  0.94886657    -0.09600
N826        N  0.55680311  0.58180685  0.91927307    -0.64900
Mn827      Mn  0.52160020  0.51209390  0.99963135     1.10700
C828        C  0.56935557  0.55171975  0.90502653     0.98100
C829        C  0.57484943  0.57320531  0.07728843     0.98200
N830        N  0.44808334  0.62875742  0.03133626    -0.07100
N831        N  0.43711914  0.64170134  0.06116708    -0.62500
N832        N  0.47694169  0.62275257  0.94882710    -0.06400
N833        N  0.48618359  0.63779964  0.91945066    -0.59200
N834        N  0.44276907  0.62033948  0.95095223    -0.07700
N835        N  0.42816803  0.63388203  0.92259431    -0.62000
N836        N  0.48218193  0.63171150  0.02868429    -0.06700
N837        N  0.49497405  0.64673545  0.05684559    -0.59200
Mn838      Mn  0.41757160  0.59535681  0.99719146     1.20200
Mn839      Mn  0.51255820  0.60354512  0.98900073     1.10100
Cl840      Cl  0.46960089  0.55372412  0.99867851    -0.87200
C841        C  0.46656462  0.65282650  0.07656944     0.95100
C842        C  0.45575679  0.64450566  0.90324803     0.94900
N843        N  0.48971942  0.10192273  0.57110267    -0.07400
N844        N  0.49963995  0.13158050  0.58630946    -0.59500
N845        N  0.46508750  0.01578840  0.57917489    -0.07000
N846        N  0.45745486  0.98723664  0.59689103    -0.61600
N847        N  0.49901494  0.01933387  0.57661518    -0.06600
N848        N  0.51516708  0.99291984  0.59230276    -0.59500
N849        N  0.45581365  0.09800113  0.57416940    -0.06300
N850        N  0.44214781  0.12506602  0.59120686    -0.62000
C851        C  0.46970578  0.14607307  0.59887456     0.94800
C852        C  0.48883950  0.97317137  0.60508230     0.94600
N853        N  0.40201539  0.00318630  0.49024202    -0.07500
N854        N  0.38725555  0.97367367  0.48080321    -0.60100
N855        N  0.39684602  0.08577270  0.51935928    -0.05700
N856        N  0.38329912  0.11542081  0.53038338    -0.61300
N857        N  0.39478844  0.08349737  0.48509386    -0.07600
N858        N  0.37988855  0.11171901  0.47223829    -0.60300
N859        N  0.40414809  0.00523734  0.52455410    -0.05300
N860        N  0.39057320  0.97687685  0.53899672    -0.61400
Mn861      Mn  0.42942691  0.05095113  0.55033875     1.18400
C862        C  0.38023798  0.95751224  0.51122932     0.96900
C863        C  0.37284237  0.13111801  0.50074902     0.97600
N864        N  0.54877937  0.01973245  0.51368079    -0.07600
N865        N  0.56399294  0.99215400  0.52771692    -0.63900
N866        N  0.53976986  0.09602053  0.47160358    -0.06400
N867        N  0.55382582  0.12318503  0.45561919    -0.64600
N868        N  0.54169507  0.09974166  0.50574782    -0.07100
N869        N  0.55713782  0.12936582  0.51359756    -0.64200
N870        N  0.54594850  0.01586886  0.47958152    -0.06000
N871        N  0.55927544  0.98567497  0.46991084    -0.64900
Mn872      Mn  0.52096072  0.06077406  0.54254532     1.10700
C873        C  0.57045631  0.97136314  0.50011392     0.98100
C874        C  0.56448770  0.14366227  0.48223105     0.98200
N875        N  0.44506676  0.08551690  0.42155356    -0.07100
N876        N  0.42999165  0.11355937  0.40748978    -0.62500
N877        N  0.48684663  0.00474401  0.42304641    -0.06400
N878        N  0.49987862  0.97768317  0.40552871    -0.59200
N879        N  0.45279578  0.00209242  0.42532576    -0.07700
N880        N  0.44210709  0.97315208  0.40930739    -0.62000
N881        N  0.47910153  0.08754645  0.41856400    -0.06700
N882        N  0.48779012  0.11676984  0.40244220    -0.59200
Mn883      Mn  0.42245312  0.04331057  0.45475463     1.20200
Mn884      Mn  0.51390563  0.05086025  0.44722748     1.10100
Cl885      Cl  0.47168413  0.05143230  0.49874683    -0.87200
C886        C  0.45708213  0.13286449  0.39539999     0.95100
C887        C  0.47172509  0.95790612  0.39689158     0.94900
O888        O  0.14779590  0.38564874  0.28781372    -0.89400
C889        C  0.19851568  0.19639486  0.29400238     1.10600
O890        O  0.19327849  0.33598784  0.24542793    -1.37200
O891        O  0.23373514  0.27408241  0.34961116    -0.90900
O892        O  0.18631663  0.41307636  0.25465964    -0.91600
O893        O  0.26678027  0.38229356  0.25853274    -0.80400
O894        O  0.18587966  0.32551718  0.31710842    -1.02500
C895        C  0.30957292  0.28827156  0.28608620     1.20700
O896        O  0.25194026  0.31157573  0.21493281    -1.37400
Mn897      Mn  0.20208782  0.28565739  0.22048524     1.82100
O898        O  0.29608576  0.31804695  0.29197200    -0.79500
O899        O  0.26444940  0.23370870  0.32155838    -0.88900
C900        C  0.24645301  0.22402180  0.19657229     1.11800
C901        C  0.25829327  0.25198409  0.34831257     1.06500
O902        O  0.17813077  0.29830680  0.17133840    -0.80400
O903        O  0.22515306  0.27810958  0.27136841    -1.34100
O904        O  0.19891953  0.34941739  0.17275226    -0.99600
C905        C  0.32961183  0.34922847  0.19483782     1.05200
Mn906      Mn  0.26015069  0.23656225  0.26829337     1.48600
O907        O  0.30329116  0.35837854  0.17708823    -0.88800
Mn908      Mn  0.18972727  0.37972243  0.21258650     1.49600
O909        O  0.11362609  0.33437459  0.24138567    -0.92700
C910        C  0.20351140  0.34619591  0.33316550     1.18400
C911        C  0.11083989  0.35703999  0.21735699     1.10400
Mn912      Mn  0.24547082  0.33078211  0.26795915     1.81000
O913        O  0.26503590  0.23851816  0.21757156    -0.97800
Mn914      Mn  0.15147361  0.33236309  0.28050292     1.49300
C915        C  0.16676287  0.41182179  0.28105024     1.07000
Mn916      Mn  0.29567843  0.27912981  0.21272841     1.49900
C917        C  0.27717927  0.28924657  0.13374900     1.09900
O918        O  0.24023542  0.38468010  0.21028166    -1.03600
O919        O  0.22067611  0.19862996  0.26945032    -0.93300
C920        C  0.26032588  0.39875753  0.23059066     1.21100
O921        O  0.29591213  0.27171271  0.26304604    -1.04000
O922        O  0.19109914  0.22150984  0.31403642    -0.91400
O923        O  0.29563773  0.27893036  0.15902008    -0.91000
O924        O  0.13582605  0.37639380  0.20762481    -0.91100
Mn925      Mn  0.19235483  0.27528395  0.31460433     1.47900
O926        O  0.21601192  0.23668299  0.19395599    -0.79500
C927        C  0.18001263  0.32842203  0.15796149     1.14200
O928        O  0.23296010  0.35234371  0.31962648    -0.78300
O929        O  0.15386180  0.25853133  0.23202195    -0.77900
Mn930      Mn  0.24998755  0.34983792  0.17506835     1.51100
O931        O  0.32991297  0.32161255  0.21335928    -0.90200
O932        O  0.15442125  0.28161003  0.28183024    -0.97800
O933        O  0.25515668  0.31365777  0.13561936    -0.92800
C934        C  0.14134704  0.26029232  0.26248914     1.12000
C935        C  0.65990430  0.67864131  0.78619202    -0.07400
C936        C  0.64890589  0.65311952  0.76203007    -0.18500
C937        C  0.63401822  0.62104636  0.77285245     0.09800
C938        C  0.62898280  0.61397585  0.80888676    -0.07300
C939        C  0.63819145  0.64017719  0.83268981    -0.18500
C940        C  0.65352468  0.67178941  0.82224007     0.09900
S941        S  0.62162755  0.59059502  0.73926714    -0.33500
S942        S  0.66474454  0.70238118  0.85640702    -0.33500
H943        H  0.64698770  0.68613303  0.88403048     0.27900
H944        H  0.59188091  0.57837857  0.75674650     0.27900
H945        H  0.65232727  0.65784870  0.73441560     0.18500
H946        H  0.63461486  0.63522740  0.86024818     0.18500
C947        C  0.77954833  0.65139686  0.71560949    -0.07400
C948        C  0.81228705  0.63596151  0.71953432    -0.18500
C949        C  0.82472143  0.61265298  0.69469854     0.09800
C950        C  0.80401760  0.60535629  0.66519683    -0.07300
C951        C  0.77035355  0.61890845  0.66241351    -0.18500
C952        C  0.75780433  0.64194221  0.68747462     0.09900
S953        S  0.86677375  0.59225166  0.70115815    -0.33500
S954        S  0.71481411  0.65962448  0.68102942    -0.33500
H955        H  0.70968543  0.66878651  0.71595196     0.27900
H956        H  0.87224997  0.60422921  0.73543074     0.27900
H957        H  0.82892899  0.64395976  0.74092401     0.18500
H958        H  0.75397762  0.61172046  0.64049621     0.18500
C959        C  0.61409981  0.83299737  0.68067805    -0.07400
C960        C  0.61310680  0.87009386  0.68139220    -0.18500
C961        C  0.58543185  0.88919334  0.66753796     0.09800
C962        C  0.55750124  0.87156796  0.65168488    -0.07300
C963        C  0.55953846  0.83481743  0.64836229    -0.18500
C964        C  0.58789239  0.81551540  0.66212700     0.09900
S965        S  0.58586127  0.93575742  0.67458871    -0.33500
S966        S  0.58993743  0.76891429  0.65617804    -0.33500
H967        H  0.56039652  0.76617163  0.63463389     0.27900
H968        H  0.55208376  0.93690180  0.68872046     0.27900
H969        H  0.63320993  0.88467124  0.69447059     0.18500
H970        H  0.53833594  0.82118815  0.63573253     0.18500
C971        C  0.57712228  0.75468138  0.80444753    -0.07400
C972        C  0.56221709  0.75735466  0.83766889    -0.18500
C973        C  0.53142114  0.74010856  0.84581415     0.09800
C974        C  0.51562888  0.71840920  0.82062270    -0.07300
C975        C  0.52995542  0.71615070  0.78712484    -0.18500
C976        C  0.56077766  0.73376848  0.77878710     0.09900
S977        S  0.51306043  0.74779873  0.88844781    -0.33500
S978        S  0.57832603  0.72636373  0.73585904    -0.33500
H979        H  0.61220932  0.73795069  0.74219291     0.27900
H980        H  0.47811682  0.74693943  0.87736761     0.27900
H981        H  0.57463466  0.77323185  0.85749739     0.18500
H982        H  0.51770085  0.69961070  0.76774348     0.18500
C983        C  0.75659593  0.72924180  0.63456965    -0.07400
C984        C  0.73299434  0.71826406  0.60860139    -0.18500
C985        C  0.74450155  0.70454797  0.57602321     0.09800
C986        C  0.78069021  0.70156703  0.56856667    -0.07300
C987        C  0.80398362  0.71075057  0.59517683    -0.18500
C988        C  0.79283949  0.72431084  0.62745930     0.09900
S989        S  0.71253780  0.69009995  0.54472852    -0.33500
S990        S  0.82654956  0.73558688  0.65840610    -0.33500
H991        H  0.85369581  0.71609983  0.64328049     0.27900
H992        H  0.68332849  0.69326616  0.56659990     0.27900
H993        H  0.70540164  0.72139866  0.61344197     0.18500
H994        H  0.83162655  0.70863005  0.59010834     0.18500
C995        C  0.62777472  0.87696674  0.56336426    -0.07400
C996        C  0.65489447  0.89925546  0.57310625    -0.18500
C997        C  0.68186893  0.88734703  0.59396521     0.09800
C998        C  0.68092658  0.85305207  0.60712312    -0.07300
C999        C  0.65434067  0.83029095  0.59692625    -0.18500
C1000       C  0.62780687  0.84188236  0.57477098     0.09900
S1001       S  0.71690719  0.91711170  0.60358655    -0.33500
S1002       S  0.59437993  0.81120812  0.56257438    -0.33500
H1003       H  0.56819921  0.83636672  0.55713825     0.27900
H1004       H  0.74202461  0.89053028  0.60676048     0.27900
H1005       H  0.65620061  0.92558223  0.56275158     0.18500
H1006       H  0.65307188  0.80424833  0.60791882     0.18500
C1007       C  0.92551116  0.74262620  0.84978083    -0.07400
C1008       C  0.92558708  0.75875842  0.81698561    -0.18500
C1009       C  0.89494521  0.76258948  0.79771219     0.09800
C1010       C  0.86321988  0.74882462  0.81096570    -0.07300
C1011       C  0.86307994  0.73500858  0.84490715    -0.18500
C1012       C  0.89346247  0.73276683  0.86466192     0.09900
S1013       S  0.89922123  0.78378935  0.75596329    -0.33500
S1014       S  0.88970662  0.71664950  0.90857353    -0.33500
H1015       H  0.91684632  0.73737155  0.92198210     0.27900
H1016       H  0.87548962  0.81034330  0.76488652     0.27900
H1017       H  0.94993297  0.76698157  0.80538660     0.18500
H1018       H  0.83922118  0.72535259  0.85621495     0.18500
C1019       C  0.89111633  0.89857132  0.67948415    -0.07400
C1020       C  0.87033435  0.87566930  0.66056737    -0.18500
C1021       C  0.84512622  0.85469257  0.67661058     0.09800
C1022       C  0.83819208  0.85784580  0.71334688    -0.07300
C1023       C  0.85817536  0.88228306  0.73213509    -0.18500
C1024       C  0.88473040  0.90206863  0.71583418     0.09900
S1025       S  0.82280659  0.82442908  0.64801683    -0.33500
S1026       S  0.90948031  0.93152304  0.74280142    -0.33500
H1027       H  0.91836251  0.95468804  0.71579955     0.27900
H1028       H  0.84676670  0.82455934  0.62031367     0.27900
H1029       H  0.87524583  0.87284789  0.63292990     0.18500
H1030       H  0.85351713  0.88565200  0.75980179     0.18500
C1031       C  0.69007729  0.91864762  0.80657917    -0.07400
C1032       C  0.71119908  0.93981378  0.82801888    -0.18500
C1033       C  0.69847763  0.97103887  0.84347867     0.09800
C1034       C  0.66345348  0.98187768  0.83818377    -0.07300
C1035       C  0.64208328  0.96034231  0.81794629    -0.18500
C1036       C  0.65460384  0.92962670  0.80182018     0.09900
S1037       S  0.72819462  0.99574490  0.87018354    -0.33500
S1038       S  0.62410475  0.90589155  0.77454821    -0.33500
H1039       H  0.59445948  0.92665460  0.78041354     0.27900
H1040       H  0.70265579  0.01012476  0.89219009     0.27900
H1041       H  0.73803438  0.93223730  0.83254713     0.18500
H1042       H  0.61546601  0.96863215  0.81350743     0.18500
C1043       C  0.78372129  0.92948935  0.68729495    -0.07400
C1044       C  0.79840373  0.93087678  0.65384342    -0.18500
C1045       C  0.81984042  0.95788846  0.64361544     0.09800
C1046       C  0.82665147  0.98535813  0.66735737    -0.07300
C1047       C  0.81425518  0.98265187  0.70184627    -0.18500
C1048       C  0.79315983  0.95483754  0.71216617     0.09900
S1049       S  0.83392178  0.95633781  0.59872457    -0.33500
S1050       S  0.77967644  0.95309623  0.75710428    -0.33500
H1051       H  0.78439979  0.91680017  0.76020601     0.27900
H1052       H  0.86901668  0.96226417  0.60683679     0.27900
H1053       H  0.79269245  0.91084797  0.63475949     0.18500
H1054       H  0.81997904  0.00305237  0.72059644     0.18500
C1055       C  0.77766919  0.76981868  0.87603331    -0.07400
C1056       C  0.79617957  0.79269550  0.89817208    -0.18500
C1057       C  0.81193639  0.78095499  0.92966269     0.09800
C1058       C  0.80945431  0.74537628  0.93985158    -0.07300
C1059       C  0.79147531  0.72267009  0.91778029    -0.18500
C1060       C  0.77557690  0.73395115  0.88667995     0.09900
S1061       S  0.83586420  0.81239985  0.95506013    -0.33500
S1062       S  0.75476125  0.70047757  0.86061873    -0.33500
H1063       H  0.75543780  0.67322171  0.88519363     0.27900
H1064       H  0.86061407  0.78858590  0.96804295     0.27900
H1065       H  0.79850664  0.81991476  0.89092820     0.18500
H1066       H  0.78978643  0.69544557  0.92522822     0.18500
C1067       C  0.65309271  0.91258688  0.93359258    -0.07400
C1068       C  0.62640685  0.90660171  0.90934412    -0.18500
C1069       C  0.62871042  0.87963221  0.88559772     0.09800
C1070       C  0.66015720  0.86058310  0.88271675    -0.07300
C1071       C  0.68858833  0.86936982  0.90399556    -0.18500
C1072       C  0.68532675  0.89526246  0.92951778     0.09900
S1073       S  0.58898194  0.86881869  0.86263527    -0.33500
S1074       S  0.72280521  0.90505114  0.95613353    -0.33500
H1075       H  0.71152939  0.93869641  0.96573763     0.27900
H1076       H  0.59426375  0.83254151  0.86469654     0.27900
H1077       H  0.60148841  0.91969639  0.91166478     0.18500
H1078       H  0.71337545  0.85621835  0.90063146     0.18500
C1079       C  0.78383148  0.66200516  0.31037943    -0.07400
C1080       C  0.75705694  0.63701207  0.31076763    -0.18500
C1081       C  0.75991109  0.60647493  0.33074598     0.09800
C1082       C  0.79074415  0.60015308  0.35005325    -0.07300
C1083       C  0.81687915  0.62580868  0.35020055    -0.18500
C1084       C  0.81408514  0.65622601  0.33071553     0.09900
S1085       S  0.72295161  0.57756683  0.33119341    -0.33500
S1086       S  0.85126325  0.68534479  0.33036521    -0.33500
H1087       H  0.86839775  0.67185028  0.35991048     0.27900
H1088       H  0.72613326  0.56945487  0.36687120     0.27900
H1089       H  0.73339439  0.64162713  0.29599142     0.18500
H1090       H  0.84088941  0.62145424  0.36431410     0.18500
C1091       C  0.66802227  0.68357003  0.22236365    -0.07400
C1092       C  0.63253713  0.67686324  0.22856803    -0.18500
C1093       C  0.61398489  0.65217319  0.20829107     0.09800
C1094       C  0.63040670  0.63552612  0.17962350    -0.07300
C1095       C  0.66592620  0.64139397  0.17442253    -0.18500
C1096       C  0.68507663  0.66371485  0.19609521     0.09900
S1097       S  0.57025385  0.64155895  0.22143397    -0.33500
S1098       S  0.73200690  0.66416422  0.19154660    -0.33500
H1099       H  0.73417260  0.64351001  0.16128310     0.27900
H1100       H  0.55892344  0.62938712  0.18874823     0.27900
H1101       H  0.61904641  0.69123755  0.24883388     0.18500
H1102       H  0.67926353  0.62641595  0.15452203     0.18500
C1103       C  0.58791604  0.74781757  0.19126337    -0.07400
C1104       C  0.58896916  0.72911512  0.15978696    -0.18500
C1105       C  0.56254589  0.70678517  0.14985116     0.09800
C1106       C  0.53249752  0.70456887  0.17112193    -0.07300
C1107       C  0.53170767  0.72276110  0.20318320    -0.18500
C1108       C  0.55935504  0.74382458  0.21375198     0.09900
S1109       S  0.56880486  0.68229274  0.10975468    -0.33500
S1110       S  0.55685050  0.76396983  0.25614587    -0.33500
H1111       H  0.59168350  0.75664939  0.26495676     0.27900
H1112       H  0.60242448  0.69394662  0.10122757     0.27900
H1113       H  0.61096847  0.73204955  0.14246842     0.18500
H1114       H  0.50934229  0.72078077  0.22026972     0.18500
C1115       C  0.60112879  0.83278812  0.30645809    -0.07400
C1116       C  0.58772339  0.81967744  0.33809702    -0.18500
C1117       C  0.55686393  0.83343793  0.35336070     0.09800
C1118       C  0.53884796  0.86170146  0.33733084    -0.07300
C1119       C  0.55145193  0.87381111  0.30533718    -0.18500
C1120       C  0.58130885  0.85943187  0.28941334     0.09900
S1121       S  0.54190545  0.81351336  0.39319758    -0.33500
S1122       S  0.59121531  0.87357862  0.24551549    -0.33500
H1123       H  0.57025786  0.90374424  0.24536169     0.27900
H1124       H  0.52123423  0.84143393  0.40482864     0.27900
H1125       H  0.60174393  0.79906656  0.35150023     0.18500
H1126       H  0.53679891  0.89399263  0.29197476     0.18500
C1127       C  0.61572084  0.86960147  0.44095470    -0.07400
C1128       C  0.64158028  0.84362847  0.44413560    -0.18500
C1129       C  0.66518166  0.83720569  0.41727991     0.09800
C1130       C  0.66283830  0.85699535  0.38628749    -0.07300
C1131       C  0.63404411  0.87934414  0.38170682    -0.18500
C1132       C  0.61058586  0.88567426  0.40826859     0.09900
S1133       S  0.69807540  0.80468239  0.42514458    -0.33500
S1134       S  0.57657327  0.91669045  0.39887872    -0.33500
H1135       H  0.55182905  0.89980607  0.41999764     0.27900
H1136       H  0.69006530  0.78685417  0.39410229     0.27900
H1137       H  0.64525958  0.82986293  0.46854666     0.18500
H1138       H  0.63000505  0.89325590  0.35743299     0.18500
C1139       C  0.75615295  0.74404929  0.37580708    -0.07400
C1140       C  0.73346057  0.72393651  0.39662802    -0.18500
C1141       C  0.74499615  0.70672954  0.42742298     0.09800
C1142       C  0.78037932  0.70895486  0.43815465    -0.07300
C1143       C  0.80308150  0.72794589  0.41692212    -0.18500
C1144       C  0.79186236  0.74542975  0.38657528     0.09900
S1145       S  0.71340465  0.68143917  0.45106117    -0.33500
S1146       S  0.82467761  0.76929499  0.36261967    -0.33500
H1147       H  0.85422895  0.75721633  0.38069383     0.27900
H1148       H  0.73725060  0.65700036  0.46452409     0.27900
H1149       H  0.70637184  0.72169280  0.38902019     0.18500
H1150       H  0.83002963  0.72996077  0.42490600     0.18500
C1151       C  0.66536137  0.84381432  0.10890975    -0.07400
C1152       C  0.62994473  0.84863854  0.10153820    -0.18500
C1153       C  0.61892056  0.87099585  0.07510430     0.09800
C1154       C  0.64416419  0.88960422  0.05582000    -0.07300
C1155       C  0.67976266  0.88340478  0.06212526    -0.18500
C1156       C  0.69060884  0.86044005  0.08830348     0.09900
S1157       S  0.57271181  0.87404039  0.06599547    -0.33500
S1158       S  0.73659031  0.85502556  0.09565212    -0.33500
H1159       H  0.73488294  0.81837960  0.09607432     0.27900
H1160       H  0.56157256  0.84794882  0.08924323     0.27900
H1161       H  0.61077804  0.83543138  0.11746817     0.18500
H1162       H  0.69926198  0.89675823  0.04672889     0.18500
C1163       C  0.78315857  0.76982405  0.13234175    -0.07400
C1164       C  0.81390298  0.78442110  0.11854946    -0.18500
C1165       C  0.82897397  0.77193405  0.08707299     0.09800
C1166       C  0.81387925  0.74320875  0.06912254    -0.07300
C1167       C  0.78302481  0.72922694  0.08238506    -0.18500
C1168       C  0.76709498  0.74243426  0.11274238     0.09900
S1169       S  0.86703537  0.79439854  0.07118202    -0.33500
S1170       S  0.72456520  0.72541344  0.12383180    -0.33500
H1171       H  0.72336544  0.69812213  0.09930758     0.27900
H1172       H  0.87625641  0.77125616  0.04436635     0.27900
H1173       H  0.82644007  0.80559415  0.13242286     0.18500
H1174       H  0.77057638  0.70840976  0.06788706     0.18500
C1175       C  0.65668798  0.97126667  0.15392916    -0.07400
C1176       C  0.64789616  0.96335353  0.18831812    -0.18500
C1177       C  0.66646301  0.93857173  0.20767919     0.09800
C1178       C  0.69362800  0.91888671  0.19176008    -0.07300
C1179       C  0.70334665  0.92761117  0.15748964    -0.18500
C1180       C  0.68562330  0.95404964  0.13873167     0.09900
S1181       S  0.65689909  0.93525707  0.25379185    -0.33500
S1182       S  0.70187498  0.96558807  0.09621949    -0.33500
H1183       H  0.67043098  0.97928276  0.08328137     0.27900
H1184       H  0.62584216  0.95477994  0.25371855     0.27900
H1185       H  0.62754865  0.97844322  0.20080227     0.18500
H1186       H  0.72443928  0.91356852  0.14513742     0.18500
C1187       C  0.76958711  0.94777512  0.30764937    -0.07400
C1188       C  0.77162020  0.96115501  0.34151810    -0.18500
C1189       C  0.78763777  0.99296141  0.34811453     0.09800
C1190       C  0.80362130  0.01126515  0.32042779    -0.07300
C1191       C  0.80038993  0.99872789  0.28621364    -0.18500
C1192       C  0.78355964  0.96701093  0.27951113     0.09900
S1193       S  0.78552511  0.00925369  0.39227839    -0.33500
S1194       S  0.78254795  0.95167578  0.23506800    -0.33500
H1195       H  0.78678511  0.91625947  0.24351819     0.27900
H1196       H  0.78284744  0.04464818  0.38273578     0.27900
H1197       H  0.75995308  0.94697005  0.36300819     0.18500
H1198       H  0.81235910  0.01286482  0.26489130     0.18500
C1199       C  0.91030745  0.89694609  0.30396505    -0.07400
C1200       C  0.88573407  0.88646688  0.32887717    -0.18500
C1201       C  0.85396886  0.87072858  0.31980629     0.09800
C1202       C  0.84542490  0.86445616  0.28411622    -0.07300
C1203       C  0.86973524  0.87544585  0.25886034    -0.18500
C1204       C  0.90165867  0.89158985  0.26826721     0.09900
S1205       S  0.82536931  0.85903307  0.35532819    -0.33500
S1206       S  0.92940995  0.90574426  0.23334305    -0.33500
H1207       H  0.94007518  0.93651054  0.25029283     0.27900
H1208       H  0.84056978  0.88027062  0.38112452     0.27900
H1209       H  0.89185171  0.88980941  0.35622957     0.18500
H1210       H  0.86397042  0.87128513  0.23149778     0.18500
C1211       C  0.86782575  0.74169367  0.21053506    -0.07400
C1212       C  0.88345450  0.76947279  0.19281223    -0.18500
C1213       C  0.90727881  0.76299417  0.16594325     0.09800
C1214       C  0.91478141  0.72808289  0.15658160    -0.07300
C1215       C  0.89944276  0.70058011  0.17504197    -0.18500
C1216       C  0.87674892  0.70695827  0.20223038     0.09900
S1217       S  0.92683746  0.79920812  0.14309835    -0.33500
S1218       S  0.85928392  0.66943898  0.22478847    -0.33500
H1219       H  0.85161160  0.68724603  0.25579691     0.27900
H1220       H  0.90771051  0.82582795  0.15963002     0.27900
H1221       H  0.87560228  0.79596759  0.19881272     0.18500
H1222       H  0.90623247  0.67366360  0.16929762     0.18500
C1223       C  0.16272353  0.63390065  0.64832738    -0.07400
C1224       C  0.14868907  0.64242817  0.68074162    -0.18500
C1225       C  0.16254436  0.66922679  0.70098296     0.09800
C1226       C  0.19083466  0.68919819  0.68796253    -0.07300
C1227       C  0.20519981  0.68040802  0.65538281    -0.18500
C1228       C  0.19157587  0.65272849  0.63552904     0.09900
S1229       S  0.14508952  0.67520085  0.74447325    -0.33500
S1230       S  0.21236670  0.64243508  0.59466583    -0.33500
H1231       H  0.18388939  0.62513502  0.57948681     0.27900
H1232       H  0.11502974  0.65466080  0.74036820     0.27900
H1233       H  0.12763350  0.62669316  0.69097487     0.18500
H1234       H  0.22667619  0.69553462  0.64504387     0.18500
C1235       C  0.26686332  0.66026788  0.80736917    -0.07400
C1236       C  0.29592849  0.66128668  0.82986068    -0.18500
C1237       C  0.31391362  0.63120916  0.83996267     0.09800
C1238       C  0.30296798  0.59824953  0.82732553    -0.07300
C1239       C  0.27495648  0.59709167  0.80358981    -0.18500
C1240       C  0.25708542  0.62746600  0.79330052     0.09900
S1241       S  0.35088930  0.63623161  0.86889447    -0.33500
S1242       S  0.22217960  0.62203937  0.76244925    -0.33500
H1243       H  0.23504890  0.64781345  0.73974538     0.27900
H1244       H  0.35006521  0.67279301  0.87225673     0.27900
H1245       H  0.30464184  0.68601113  0.84027472     0.18500
H1246       H  0.26637328  0.57218357  0.79332304     0.18500
C1247       C  0.33741109  0.74472648  0.78028629    -0.07400
C1248       C  0.34532975  0.71138745  0.76763805    -0.18500
C1249       C  0.37226662  0.69147592  0.78247202     0.09800
C1250       C  0.39180048  0.70551711  0.81030821    -0.07300
C1251       C  0.38391862  0.73867822  0.82303024    -0.18500
C1252       C  0.35710938  0.75856363  0.80870956     0.09900
S1253       S  0.38057072  0.64871892  0.76479148    -0.33500
S1254       S  0.35043754  0.80206255  0.82628936    -0.33500
H1255       H  0.36980426  0.79771207  0.85717454     0.27900
H1256       H  0.39575422  0.63466987  0.79508873     0.27900
H1257       H  0.32981815  0.70022267  0.74660218     0.18500
H1258       H  0.39986323  0.74957825  0.84368763     0.18500
C1259       C  0.43095665  0.87883360  0.66765261    -0.07400
C1260       C  0.43212036  0.85922688  0.69864502    -0.18500
C1261       C  0.40142339  0.84989090  0.71651644     0.09800
C1262       C  0.36861830  0.86094877  0.70326132    -0.07300
C1263       C  0.36799590  0.87868443  0.67111471    -0.18500
C1264       C  0.39823876  0.88701636  0.65313679     0.09900
S1265       S  0.40531148  0.82516523  0.75643167    -0.33500
S1266       S  0.39297365  0.90820691  0.61158488    -0.33500
H1267       H  0.42020782  0.88971003  0.59536121     0.27900
H1268       H  0.44150011  0.81959197  0.75519802     0.27900
H1269       H  0.45723852  0.85248644  0.70966387     0.18500
H1270       H  0.34359737  0.88687099  0.65969117     0.18500
C1271       C  0.28287415  0.83447423  0.63163145    -0.07400
C1272       C  0.28355029  0.87078613  0.62573862    -0.18500
C1273       C  0.30016804  0.88533821  0.59710510     0.09800
C1274       C  0.31800955  0.86347356  0.57360182    -0.07300
C1275       C  0.31745573  0.82708555  0.57901003    -0.18500
C1276       C  0.29977749  0.81231068  0.60749222     0.09900
S1277       S  0.29550910  0.93187476  0.59126343    -0.33500
S1278       S  0.29857536  0.76538658  0.61044910    -0.33500
H1279       H  0.26342611  0.76371038  0.62041572     0.27900
H1280       H  0.28784355  0.92964913  0.55541539     0.27900
H1281       H  0.27063411  0.88848113  0.64356887     0.18500
H1282       H  0.33027666  0.80999711  0.56047688     0.18500
C1283       C  0.15877092  0.76278604  0.60256240    -0.07400
C1284       C  0.18561401  0.75379513  0.57942475    -0.18500
C1285       C  0.17891715  0.73367181  0.54943334     0.09800
C1286       C  0.14436504  0.72295060  0.54177996    -0.07300
C1287       C  0.11774323  0.73242381  0.56505389    -0.18500
C1288       C  0.12435076  0.75240478  0.59466849     0.09900
S1289       S  0.21583025  0.72105389  0.52341257    -0.33500
S1290       S  0.08710301  0.76517290  0.62044726    -0.33500
H1291       H  0.09984255  0.79863779  0.62855344     0.27900
H1292       H  0.20343714  0.68712058  0.51685680     0.27900
H1293       H  0.21211204  0.76127602  0.58541978     0.18500
H1294       H  0.09097034  0.72540609  0.55957860     0.18500
C1295       C  0.10274294  0.77923412  0.80635650    -0.07400
C1296       C  0.09734583  0.78931962  0.84120680    -0.18500
C1297       C  0.07157991  0.77324371  0.86167069     0.09800
C1298       C  0.05123477  0.74616343  0.84720166    -0.07300
C1299       C  0.05576640  0.73707310  0.81220719    -0.18500
C1300       C  0.08069404  0.75351633  0.79149145     0.09900
S1301       S  0.06562843  0.78863627  0.90569237    -0.33500
S1302       S  0.08216596  0.74279553  0.74550740    -0.33500
H1303       H  0.06024244  0.71344330  0.74676539     0.27900
H1304       H  0.05127510  0.75764725  0.91895953     0.27900
H1305       H  0.11400381  0.80888441  0.85291576     0.18500
H1306       H  0.03859226  0.71780524  0.80072441     0.18500
C1307       C  0.01884319  0.89793909  0.67033368    -0.07400
C1308       C  0.02037628  0.87724399  0.70071652    -0.18500
C1309       C  0.05127948  0.86052877  0.71101809     0.09800
C1310       C  0.08105923  0.86276063  0.68954044    -0.07300
C1311       C  0.08019747  0.88555294  0.66092199    -0.18500
C1312       C  0.05021027  0.90376541  0.65154000     0.09900
S1313       S  0.05126836  0.83822698  0.75234278    -0.33500
S1314       S  0.05371920  0.93337308  0.61484966    -0.33500
H1315       H  0.09027292  0.93479954  0.61304631     0.27900
H1316       H  0.08495492  0.84937554  0.76159552     0.27900
H1317       H  0.99731692  0.87375873  0.71656779     0.18500
H1318       H  0.10310922  0.88850305  0.64480657     0.18500
C1319       C  0.28385063  0.94824550  0.80054736    -0.07400
C1320       C  0.31174434  0.94829217  0.82431107    -0.18500
C1321       C  0.32164595  0.97821089  0.84244858     0.09800
C1322       C  0.30402745  0.01019632  0.83585958    -0.07300
C1323       C  0.27502245  0.00988329  0.81325118    -0.18500
C1324       C  0.26431979  0.97926737  0.79625567     0.09900
S1325       S  0.35658318  0.97378570  0.87403380    -0.33500
S1326       S  0.22501708  0.98146737  0.77065524    -0.33500
H1327       H  0.21214329  0.94932460  0.78284675     0.27900
H1328       H  0.36140838  0.93744466  0.87184485     0.27900
H1329       H  0.32650574  0.92459911  0.82851096     0.18500
H1330       H  0.26046507  0.03370388  0.80856658     0.18500
C1331       C  0.16406736  0.92538702  0.71803569    -0.07400
C1332       C  0.13011427  0.93189735  0.73018282    -0.18500
C1333       C  0.10888697  0.95744606  0.71450705     0.09800
C1334       C  0.12165906  0.97676621  0.68591975    -0.07300
C1335       C  0.15559658  0.97085203  0.67428493    -0.18500
C1336       C  0.17712591  0.94597955  0.69015170     0.09900
S1337       S  0.06591384  0.96421374  0.73208557    -0.33500
S1338       S  0.22173608  0.94233611  0.67527523    -0.33500
H1339       H  0.22086135  0.96945449  0.65054875     0.27900
H1340       H  0.05089672  0.97730550  0.70127019     0.27900
H1341       H  0.11961077  0.91626004  0.75120083     0.18500
H1342       H  0.16564412  0.98684978  0.65327643     0.18500
C1343       C  0.28658276  0.90420664  0.91843829    -0.07400
C1344       C  0.29220479  0.86828556  0.91512478    -0.18500
C1345       C  0.27426430  0.84836590  0.89046848     0.09800
C1346       C  0.25055465  0.86484216  0.86729906    -0.07300
C1347       C  0.24415929  0.90083964  0.87113783    -0.18500
C1348       C  0.26174019  0.92062334  0.89666212     0.09900
S1349       S  0.28114190  0.80158087  0.89010296    -0.33500
S1350       S  0.25041398  0.96611653  0.90094586    -0.33500
H1351       H  0.28201330  0.97703967  0.91580322     0.27900
H1352       H  0.30326662  0.79958354  0.91931060     0.27900
H1353       H  0.31015277  0.85558571  0.93292062     0.18500
H1354       H  0.22631626  0.91383865  0.85349098     0.18500
C1355       C  0.13463465  0.72972809  0.95486782    -0.07400
C1356       C  0.12354348  0.71344165  0.92405423    -0.18500
C1357       C  0.13970705  0.71945951  0.89214086     0.09800
C1358       C  0.16697533  0.74450791  0.89009660    -0.07300
C1359       C  0.17630016  0.76296462  0.92041142    -0.18500
C1360       C  0.16084568  0.75574012  0.95281624     0.09900
S1361       S  0.12592847  0.69255285  0.85559651    -0.33500
S1362       S  0.17653063  0.77892532  0.99087069    -0.33500
H1363       H  0.19995192  0.80124120  0.97368978     0.27900
H1364       H  0.09995079  0.67306998  0.87250065     0.27900
H1365       H  0.10274669  0.69447149  0.92518475     0.18500
H1366       H  0.19667436  0.78238272  0.91893628     0.18500
C1367       C  0.80201374  0.48531860  0.64128416    -0.07400
C1368       C  0.76670157  0.48266254  0.65083033    -0.18500
C1369       C  0.75578303  0.45855064  0.67581797     0.09800
C1370       C  0.78044593  0.43581657  0.69070965    -0.07300
C1371       C  0.81533304  0.43762169  0.67998857    -0.18500
C1372       C  0.82621471  0.46108386  0.65494613     0.09900
S1373       S  0.71060245  0.45850026  0.68788318    -0.33500
S1374       S  0.87189990  0.45968689  0.64413634    -0.33500
H1375       H  0.86572032  0.45935273  0.60798349     0.27900
H1376       H  0.71753227  0.46281033  0.72367100     0.27900
H1377       H  0.74796376  0.50131901  0.64072371     0.18500
H1378       H  0.83456720  0.41993660  0.69093369     0.18500
C1379       C  0.65698455  0.42035236  0.77888180    -0.07400
C1380       C  0.66290896  0.42901620  0.81433245    -0.18500
C1381       C  0.65005006  0.45977792  0.82981183     0.09800
C1382       C  0.63000609  0.48368736  0.81010324    -0.07300
C1383       C  0.62349851  0.47522764  0.77476977    -0.18500
C1384       C  0.63583000  0.44376054  0.75937897     0.09900
S1385       S  0.66203541  0.46777675  0.87460577    -0.33500
S1386       S  0.62338057  0.43503687  0.71501718    -0.33500
H1387       H  0.61182975  0.40098951  0.72233702     0.27900
H1388       H  0.66756913  0.50382364  0.87035314     0.27900
H1389       H  0.67854026  0.41183615  0.83050076     0.18500
H1390       H  0.60803392  0.49301051  0.75911819     0.18500
C1391       C  0.57877431  0.34957216  0.81237968    -0.07400
C1392       C  0.56177309  0.36637695  0.78470980    -0.18500
C1393       C  0.53618384  0.39144871  0.79135464     0.09800
C1394       C  0.52781182  0.39950794  0.82626902    -0.07300
C1395       C  0.54507195  0.38233466  0.85366099    -0.18500
C1396       C  0.56989448  0.35709513  0.84708370     0.09900
S1397       S  0.51607798  0.41287944  0.75459036    -0.33500
S1398       S  0.58918712  0.33505413  0.88411530    -0.33500
H1399       H  0.59588618  0.30339540  0.86671941     0.27900
H1400       H  0.50757215  0.44384470  0.77240439     0.27900
H1401       H  0.56952180  0.36106707  0.75805117     0.18500
H1402       H  0.53793093  0.38713400  0.88058029     0.18500
C1403       C  0.52813449  0.24513594  0.66110479    -0.07400
C1404       C  0.53850894  0.23433524  0.69444676    -0.18500
C1405       C  0.56805738  0.24832992  0.71133486     0.09800
C1406       C  0.58947397  0.27346005  0.69423225    -0.07300
C1407       C  0.57825062  0.28536455  0.66122437    -0.18500
C1408       C  0.54792662  0.27185119  0.64473812     0.09900
S1409       S  0.57674898  0.23455141  0.75565830    -0.33500
S1410       S  0.53623403  0.29016698  0.60293369    -0.33500
H1411       H  0.51073052  0.26579281  0.59332824     0.27900
H1412       H  0.54693316  0.21383010  0.76034556     0.27900
H1413       H  0.52291636  0.21481736  0.70756361     0.18500
H1414       H  0.59373339  0.30462805  0.64762939     0.18500
C1415       C  0.65692325  0.25294994  0.60437461    -0.07400
C1416       C  0.62563228  0.23400222  0.60498066    -0.18500
C1417       C  0.60679397  0.22725412  0.57466444     0.09800
C1418       C  0.61983131  0.23917011  0.54225291    -0.07300
C1419       C  0.64885936  0.26142255  0.54201982    -0.18500
C1420       C  0.66709194  0.26902061  0.57268003     0.09900
S1421       S  0.56639914  0.20317894  0.57849086    -0.33500
S1422       S  0.70294734  0.29900574  0.56897662    -0.33500
H1423       H  0.69258600  0.31822745  0.59841731     0.27900
H1424       H  0.57021975  0.19273599  0.61346541     0.27900
H1425       H  0.61612330  0.22344256  0.62932914     0.18500
H1426       H  0.65841818  0.27191933  0.51762293     0.18500
C1427       C  0.75257658  0.36380008  0.63297372    -0.07400
C1428       C  0.78931867  0.36039877  0.63115251    -0.18500
C1429       C  0.80941903  0.37676800  0.60572307     0.09800
C1430       C  0.79314049  0.39713948  0.57994617    -0.07300
C1431       C  0.75660821  0.40158194  0.58167387    -0.18500
C1432       C  0.73636274  0.38603280  0.60829551     0.09900
S1433       S  0.85555087  0.36782995  0.60606546    -0.33500
S1434       S  0.69018495  0.39385541  0.60772848    -0.33500
H1435       H  0.68787622  0.40062890  0.64361249     0.27900
H1436       H  0.85720371  0.35891331  0.57050383     0.27900
H1437       H  0.80311827  0.34378778  0.64941145     0.18500
H1438       H  0.74362833  0.41684416  0.56168834     0.18500
C1439       C  0.75519322  0.15699216  0.68173610    -0.07400
C1440       C  0.77520783  0.14244111  0.70862157    -0.18500
C1441       C  0.80087815  0.11780693  0.70103656     0.09800
C1442       C  0.80625344  0.10804773  0.66598129    -0.07300
C1443       C  0.78487196  0.12155471  0.63956607    -0.18500
C1444       C  0.75906961  0.14553206  0.64717421     0.09900
S1445       S  0.82690836  0.10129317  0.73660532    -0.33500
S1446       S  0.73262153  0.16165283  0.61159218    -0.33500
H1447       H  0.70360157  0.17060442  0.63210536     0.27900
H1448       H  0.85723189  0.09575341  0.71684569     0.27900
H1449       H  0.77247430  0.15204905  0.73510712     0.18500
H1450       H  0.78775381  0.11280457  0.61279655     0.18500
C1451       C  0.66635908  0.11086836  0.83020055    -0.07400
C1452       C  0.64903683  0.12474349  0.80122560    -0.18500
C1453       C  0.66059118  0.15519362  0.78436613     0.09800
C1454       C  0.68927225  0.17444919  0.79813449    -0.07300
C1455       C  0.70777659  0.15951100  0.82624145    -0.18500
C1456       C  0.69711164  0.12777745  0.84191894     0.09900
S1457       S  0.63899726  0.16750086  0.74416226    -0.33500
S1458       S  0.72378029  0.11099605  0.87697700    -0.33500
H1459       H  0.70098020  0.08530006  0.88940641     0.27900
H1460       H  0.61816393  0.13757397  0.74035349     0.27900
H1461       H  0.62634086  0.11113631  0.79140243     0.18500
H1462       H  0.73029479  0.17299043  0.83662974     0.18500
C1463       C  0.90872799  0.38542876  0.83518090    -0.07400
C1464       C  0.89910944  0.35014041  0.83645669    -0.18500
C1465       C  0.87381951  0.33686119  0.81401052     0.09800
C1466       C  0.85801796  0.35954901  0.78972345    -0.07300
C1467       C  0.86845759  0.39452485  0.78780323    -0.18500
C1468       C  0.89396389  0.40759706  0.80977673     0.09900
S1469       S  0.86317193  0.29127931  0.81850913    -0.33500
S1470       S  0.90759927  0.45205359  0.80252813    -0.33500
H1471       H  0.94340532  0.44421195  0.80367993     0.27900
H1472       H  0.82990506  0.29238505  0.80373827     0.27900
H1473       H  0.91140515  0.33281435  0.85518865     0.18500
H1474       H  0.85621481  0.41197046  0.76913121     0.18500
C1475       C  0.89960748  0.21054585  0.68398872    -0.07400
C1476       C  0.88735270  0.19976551  0.71700460    -0.18500
C1477       C  0.85560445  0.21251649  0.73130704     0.09800
C1478       C  0.83518259  0.23736339  0.71269742    -0.07300
C1479       C  0.84755170  0.24727771  0.67933817    -0.18500
C1480       C  0.87889534  0.23457543  0.66515459     0.09900
S1481       S  0.84208074  0.19473504  0.77249511    -0.33500
S1482       S  0.89146440  0.25119505  0.62298407    -0.33500
H1483       H  0.92730500  0.25297504  0.63032159     0.27900
H1484       H  0.83725800  0.22743245  0.78817553     0.27900
H1485       H  0.90257398  0.18105428  0.73178420     0.18500
H1486       H  0.83289576  0.26588092  0.66387770     0.18500
C1487       C  0.81689750  0.37293641  0.91356672    -0.07400
C1488       C  0.81170235  0.33630318  0.91526254    -0.18500
C1489       C  0.79641193  0.31721141  0.88755778     0.09800
C1490       C  0.78411145  0.33506417  0.85771724    -0.07300
C1491       C  0.78973306  0.37156379  0.85632461    -0.18500
C1492       C  0.80724822  0.39003416  0.88248419     0.09900
S1493       S  0.78957182  0.27117335  0.89375038    -0.33500
S1494       S  0.81359725  0.43605213  0.87548007    -0.33500
H1495       H  0.84995788  0.43361885  0.87967228     0.27900
H1496       H  0.80262700  0.26174843  0.86087701     0.27900
H1497       H  0.81885004  0.32242606  0.93883569     0.18500
H1498       H  0.77931413  0.38669348  0.83493280     0.18500
C1499       C  0.67180179  0.24878383  0.89029340    -0.07400
C1500       C  0.66201601  0.21344036  0.88845825    -0.18500
C1501       C  0.65802455  0.19325577  0.91835612     0.09800
C1502       C  0.66366913  0.20844419  0.95135066    -0.07300
C1503       C  0.67549495  0.24307269  0.95336591    -0.18500
C1504       C  0.67957186  0.26342331  0.92335725     0.09900
S1505       S  0.64429882  0.14863497  0.91267579    -0.33500
S1506       S  0.69074641  0.30865312  0.92973788    -0.33500
H1507       H  0.72167809  0.30607618  0.91040413     0.27900
H1508       H  0.66320205  0.13566608  0.94137424     0.27900
H1509       H  0.65649447  0.20143260  0.86348963     0.18500
H1510       H  0.67944239  0.25517298  0.97862529     0.18500
C1511       C  0.66781533  0.44735294  0.18987124    -0.07400
C1512       C  0.64488232  0.44750416  0.16128893    -0.18500
C1513       C  0.62690793  0.47732873  0.15111502     0.09800
C1514       C  0.63297246  0.50913023  0.16918110    -0.07300
C1515       C  0.65460739  0.50864755  0.19893457    -0.18500
C1516       C  0.67131191  0.47806670  0.20993235     0.09900
S1517       S  0.59692935  0.47292571  0.11476716    -0.33500
S1518       S  0.69550950  0.48002409  0.25015797    -0.33500
H1519       H  0.68370886  0.44740031  0.26216028     0.27900
H1520       H  0.59566268  0.43623487  0.11350423     0.27900
H1521       H  0.64141976  0.42407096  0.14592344     0.18500
H1522       H  0.65869894  0.53226501  0.21391270     0.18500
C1523       C  0.78374246  0.47366942  0.34947325    -0.07400
C1524       C  0.79075845  0.47077253  0.31390733    -0.18500
C1525       C  0.77468563  0.44543109  0.29338925     0.09800
C1526       C  0.75072554  0.42189358  0.30885350    -0.07300
C1527       C  0.74334772  0.42502164  0.34467602    -0.18500
C1528       C  0.75972660  0.45082801  0.36517166     0.09900
S1529       S  0.78461583  0.44453763  0.24719038    -0.33500
S1530       S  0.74984571  0.45483024  0.41097758    -0.33500
H1531       H  0.72989752  0.42414999  0.41345485     0.27900
H1532       H  0.80930001  0.47160636  0.24691083     0.27900
H1533       H  0.80846489  0.48922365  0.30204233     0.18500
H1534       H  0.72566231  0.40663822  0.35672463     0.18500
C1535       C  0.78421334  0.35277544  0.39083999    -0.07400
C1536       C  0.81071263  0.37802155  0.39074424    -0.18500
C1537       C  0.82149342  0.39500235  0.42093951     0.09800
C1538       C  0.80590080  0.38620198  0.45327941    -0.07300
C1539       C  0.77849647  0.36174694  0.45342934    -0.18500
C1540       C  0.76727422  0.34510160  0.42269710     0.09900
S1541       S  0.85515137  0.42779604  0.41632392    -0.33500
S1542       S  0.73123446  0.31479828  0.42500032    -0.33500
H1543       H  0.72635859  0.31604065  0.46133912     0.27900
H1544       H  0.85437078  0.43095233  0.37976647     0.27900
H1545       H  0.82385794  0.38437920  0.36665028     0.18500
H1546       H  0.76603885  0.35522320  0.47787942     0.18500
C1547       C  0.62376618  0.23634425  0.41496880    -0.07400
C1548       C  0.61417205  0.26968937  0.40311000    -0.18500
C1549       C  0.63207910  0.28591099  0.37562390     0.09800
C1550       C  0.66171999  0.26939143  0.36104889    -0.07300
C1551       C  0.67092076  0.23587697  0.37330299    -0.18500
C1552       C  0.65203073  0.21911853  0.39929961     0.09900
S1553       S  0.61544465  0.32709911  0.36033112    -0.33500
S1554       S  0.66692195  0.17675742  0.41333384    -0.33500
H1555       H  0.63461113  0.16069164  0.40710111     0.27900
H1556       H  0.61336995  0.31595601  0.32539274     0.27900
H1557       H  0.59255126  0.28311719  0.41532273     0.18500
H1558       H  0.69313677  0.22217830  0.36248351     0.18500
C1559       C  0.64953934  0.09786299  0.16076675    -0.07400
C1560       C  0.62312982  0.12170840  0.16945910    -0.18500
C1561       C  0.63004618  0.15194766  0.18836583     0.09800
C1562       C  0.66462485  0.15946759  0.19850903    -0.07300
C1563       C  0.69127804  0.13574465  0.19033980    -0.18500
C1564       C  0.68418836  0.10515702  0.17136411     0.09900
S1565       S  0.59373618  0.17929527  0.20151484    -0.33500
S1566       S  0.72059244  0.07747039  0.16061793    -0.33500
H1567       H  0.70834501  0.06923649  0.12699991     0.27900
H1568       H  0.56744493  0.16170939  0.18297425     0.27900
H1569       H  0.59641114  0.11601234  0.16262918     0.18500
H1570       H  0.71784870  0.14156282  0.19787478     0.18500
C1571       C  0.79156794  0.19219515  0.27442080    -0.07400
C1572       C  0.79731911  0.19012930  0.31063310    -0.18500
C1573       C  0.81612699  0.16309137  0.32564844     0.09800
C1574       C  0.82734099  0.13510964  0.30461408    -0.07300
C1575       C  0.82220115  0.13699490  0.26824467    -0.18500
C1576       C  0.80539979  0.16576729  0.25283460     0.09900
S1577       S  0.82136975  0.16435345  0.37236141    -0.33500
S1578       S  0.79918051  0.16543882  0.20633775    -0.33500
H1579       H  0.81481153  0.19830706  0.20172254     0.27900
H1580       H  0.85796332  0.16499069  0.37026000     0.27900
H1581       H  0.78617233  0.20936808  0.32804122     0.18500
H1582       H  0.83048340  0.11547685  0.25187828     0.18500
C1583       C  0.76482252  0.37211196  0.10312656    -0.07400
C1584       C  0.76926947  0.34612428  0.07771741    -0.18500
C1585       C  0.78755129  0.35288435  0.04674558     0.09800
C1586       C  0.80108200  0.38679290  0.04043057    -0.07300
C1587       C  0.79623515  0.41260495  0.06606010    -0.18500
C1588       C  0.77809070  0.40594382  0.09671279     0.09900
S1589       S  0.79408772  0.31654053  0.01767320    -0.33500
S1590       S  0.77138209  0.44263503  0.12561206    -0.33500
H1591       H  0.73688021  0.43370662  0.13403090     0.27900
H1592       H  0.82932119  0.32437215  0.01146548     0.27900
H1593       H  0.75960863  0.32002802  0.08259461     0.18500
H1594       H  0.80560992  0.43895230  0.06185492     0.18500
C1595       C  0.69430930  0.24551991  0.12952889    -0.07400
C1596       C  0.70872172  0.21254718  0.12214721    -0.18500
C1597       C  0.69466039  0.19136824  0.09579069     0.09800
C1598       C  0.66550585  0.20329589  0.07680936    -0.07300
C1599       C  0.65129893  0.23603942  0.08401733    -0.18500
C1600       C  0.66549330  0.25753938  0.10960614     0.09900
S1601       S  0.71498506  0.14977919  0.08737233    -0.33500
S1602       S  0.64758992  0.30109975  0.11439500    -0.33500
H1603       H  0.61705920  0.29582593  0.09476357     0.27900
H1604       H  0.68517219  0.13354677  0.07359022     0.27900
H1605       H  0.73041807  0.20285841  0.13751424     0.18500
H1606       H  0.62993961  0.24552499  0.06809733     0.18500
C1607       C  0.01891846  0.37428242  0.15712317    -0.07400
C1608       C  0.03550965  0.40214052  0.17403667    -0.18500
C1609       C  0.06432079  0.39660875  0.19546210     0.09800
C1610       C  0.07731655  0.36245881  0.19976742    -0.07300
C1611       C  0.06004175  0.33423743  0.18411175    -0.18500
C1612       C  0.03098118  0.33986754  0.16245871     0.09900
S1613       S  0.08342069  0.43315677  0.21854093    -0.33500
S1614       S  0.01081758  0.30353990  0.14027111    -0.33500
H1615       H  0.03354498  0.27758026  0.15289744     0.27900
H1616       H  0.06197998  0.45935777  0.20430983     0.27900
H1617       H  0.02533645  0.42834388  0.17099476     0.18500
H1618       H  0.06996822  0.30808796  0.18801681     0.18500
C1619       C  0.89441704  0.36738850  0.14745010    -0.07400
C1620       C  0.88934054  0.37692403  0.18223812    -0.18500
C1621       C  0.86218834  0.36300489  0.20187563     0.09800
C1622       C  0.83933132  0.33837896  0.18636129    -0.07300
C1623       C  0.84453742  0.32866338  0.15135841    -0.18500
C1624       C  0.87169944  0.34318078  0.13162902     0.09900
S1625       S  0.85843022  0.37620279  0.24711216    -0.33500
S1626       S  0.87636760  0.32926978  0.08695290    -0.33500
H1627       H  0.89442009  0.35881581  0.07508368     0.27900
H1628       H  0.88394181  0.40250574  0.24676279     0.27900
H1629       H  0.90749071  0.39494609  0.19430423     0.18500
H1630       H  0.82678493  0.31050278  0.13902823     0.18500
C1631       C  0.05584944  0.20823916  0.31461075    -0.07400
C1632       C  0.05613023  0.20987019  0.27772357    -0.18500
C1633       C  0.08458433  0.22397057  0.25914574     0.09800
C1634       C  0.11317234  0.23782735  0.27769913    -0.07300
C1635       C  0.11319733  0.23433025  0.31442314    -0.18500
C1636       C  0.08538201  0.22007776  0.33281987     0.09900
S1637       S  0.08153231  0.22639817  0.21241582    -0.33500
S1638       S  0.08774056  0.22207302  0.37976153    -0.33500
H1639       H  0.05521382  0.23866122  0.38344974     0.27900
H1640       H  0.11496095  0.21234161  0.20707147     0.27900
H1641       H  0.03350215  0.20106960  0.26328615     0.18500
H1642       H  0.13427718  0.24509909  0.32972646     0.18500
C1643       C  0.86907056  0.26411868  0.30824514    -0.07400
C1644       C  0.87643096  0.25896286  0.34362347    -0.18500
C1645       C  0.90749033  0.24390169  0.35447284     0.09800
C1646       C  0.93158612  0.23182142  0.32928447    -0.07300
C1647       C  0.92480398  0.23804232  0.29370489    -0.18500
C1648       C  0.89370475  0.25405311  0.28289896     0.09900
S1649       S  0.91516624  0.24305093  0.40093728    -0.33500
S1650       S  0.88627024  0.25931016  0.23673428    -0.33500
H1651       H  0.85024107  0.25294937  0.23801605     0.27900
H1652       H  0.95044828  0.25255475  0.39827111     0.27900
H1653       H  0.85799219  0.26762377  0.36323286     0.18500
H1654       H  0.94322466  0.22930487  0.27415538     0.18500
C1655       C  0.34678647  0.83605292  0.30351241    -0.07400
C1656       C  0.36204567  0.86746781  0.29163509    -0.18500
C1657       C  0.39321250  0.88061202  0.30538899     0.09800
C1658       C  0.41050619  0.86273090  0.33248281    -0.07300
C1659       C  0.39622125  0.83088538  0.34414420    -0.18500
C1660       C  0.36455499  0.81764302  0.33036344     0.09900
S1661       S  0.41000766  0.92028365  0.28646534    -0.33500
S1662       S  0.34806556  0.77771636  0.34860302    -0.33500
H1663       H  0.31439871  0.79110674  0.35405395     0.27900
H1664       H  0.44536602  0.91103821  0.28921526     0.27900
H1665       H  0.34974322  0.88225096  0.27089572     0.18500
H1666       H  0.40934802  0.81665760  0.36477669     0.18500
C1667       C  0.35527895  0.74907574  0.19046056    -0.07400
C1668       C  0.34970622  0.72137285  0.16702116    -0.18500
C1669       C  0.37484128  0.69627466  0.16092170     0.09800
C1670       C  0.40717895  0.69879379  0.17825290    -0.07300
C1671       C  0.41077141  0.72311454  0.20561424    -0.18500
C1672       C  0.38559537  0.74877193  0.21139061     0.09900
S1673       S  0.36436379  0.66380656  0.12855520    -0.33500
S1674       S  0.39544956  0.78146125  0.24368601    -0.33500
H1675       H  0.39397735  0.80910114  0.21952030     0.27900
H1676       H  0.38383566  0.63745839  0.14520894     0.27900
H1677       H  0.32586641  0.71961696  0.15200929     0.18500
H1678       H  0.43483252  0.72466824  0.22029280     0.18500
C1679       C  0.18560791  0.74640782  0.35803324    -0.07400
C1680       C  0.20562388  0.72424431  0.37946979    -0.18500
C1681       C  0.19058345  0.70604846  0.40781283     0.09800
C1682       C  0.15442665  0.70917838  0.41480433    -0.07300
C1683       C  0.13422701  0.72939795  0.39239778    -0.18500
C1684       C  0.14887981  0.74817058  0.36473851     0.09900
S1685       S  0.21891544  0.67923963  0.43407680    -0.33500
S1686       S  0.11884267  0.77508952  0.34015361    -0.33500
H1687       H  0.08849274  0.75598897  0.34767543     0.27900
H1688       H  0.19278413  0.65675191  0.44639899     0.27900
H1689       H  0.23330936  0.72173410  0.37474615     0.18500
H1690       H  0.10676692  0.73243122  0.39808213     0.18500
C1691       C  0.32377275  0.86449891  0.44656254    -0.07400
C1692       C  0.29508543  0.84172974  0.44649482    -0.18500
C1693       C  0.27543231  0.83615431  0.41627350     0.09800
C1694       C  0.28365361  0.85493454  0.38553076    -0.07300
C1695       C  0.31468942  0.87431387  0.38482314    -0.18500
C1696       C  0.33509254  0.87857514  0.41445244     0.09900
S1697       S  0.24016858  0.80541587  0.41937882    -0.33500
S1698       S  0.37459444  0.90322054  0.40919924    -0.33500
H1699       H  0.39400667  0.88226111  0.43232514     0.27900
H1700       H  0.25113165  0.78678633  0.38970863     0.27900
H1701       H  0.28680437  0.82928138  0.47043557     0.18500
H1702       H  0.32310271  0.88706270  0.36106442     0.18500
C1703       C  0.10697619  0.87797673  0.27903212    -0.07400
C1704       C  0.08252161  0.89207158  0.25535623    -0.18500
C1705       C  0.04995209  0.90588574  0.26673179     0.09800
C1706       C  0.04102179  0.90566538  0.30269636    -0.07300
C1707       C  0.06624640  0.89369098  0.32623693    -0.18500
C1708       C  0.09852566  0.88015370  0.31530271     0.09900
S1709       S  0.02069261  0.92499089  0.23525431    -0.33500
S1710       S  0.12762903  0.86527898  0.34930479    -0.33500
H1711       H  0.11296269  0.88470055  0.37678471     0.27900
H1712       H  0.04320930  0.92275065  0.20643347     0.27900
H1713       H  0.08851366  0.89139632  0.22778620     0.18500
H1714       H  0.06004115  0.89361107  0.35375703     0.18500
C1715       C  0.03557831  0.73171792  0.14525263    -0.07400
C1716       C  0.05112804  0.70718689  0.16736033    -0.18500
C1717       C  0.07406282  0.71756705  0.19332972     0.09800
C1718       C  0.08286539  0.75316369  0.19647345    -0.07300
C1719       C  0.06748528  0.77793667  0.17448119    -0.18500
C1720       C  0.04377692  0.76751337  0.14880560     0.09900
S1721       S  0.09135521  0.68519754  0.22317144    -0.33500
S1722       S  0.02522167  0.80073875  0.12109793    -0.33500
H1723       H  0.01704971  0.77827883  0.09323706     0.27900
H1724       H  0.07835726  0.65554568  0.20588941     0.27900
H1725       H  0.04342048  0.68004425  0.16589654     0.18500
H1726       H  0.07509230  0.80512209  0.17630497     0.18500
C1727       C  0.15645827  0.77712336  0.13487078    -0.07400
C1728       C  0.15943615  0.74021062  0.13309730    -0.18500
C1729       C  0.14304122  0.72022946  0.10754986     0.09800
C1730       C  0.12293536  0.73685346  0.08179293    -0.07300
C1731       C  0.11817680  0.77341734  0.08409315    -0.18500
C1732       C  0.13382608  0.79349699  0.11078671     0.09900
S1733       S  0.15188582  0.67395106  0.10757710    -0.33500
S1734       S  0.12488921  0.83954793  0.11161619    -0.33500
H1735       H  0.11930096  0.84083551  0.14779079     0.27900
H1736       H  0.16243560  0.67299672  0.07246285     0.27900
H1737       H  0.17592014  0.72619140  0.15133040     0.18500
H1738       H  0.10269300  0.78656537  0.06443345     0.18500
C1739       C  0.29841279  0.90004642  0.04360929    -0.07400
C1740       C  0.26349750  0.89334742  0.05201880    -0.18500
C1741       C  0.25476659  0.87591530  0.08286220     0.09800
C1742       C  0.28157124  0.86416464  0.10522272    -0.07300
C1743       C  0.31630399  0.87120384  0.09683425    -0.18500
C1744       C  0.32510436  0.88837957  0.06632978     0.09900
S1745       S  0.20929491  0.87110401  0.09288674    -0.33500
S1746       S  0.37108457  0.89175452  0.05723284    -0.33500
H1747       H  0.36782798  0.88066976  0.02237867     0.27900
H1748       H  0.21330194  0.87641700  0.12895552     0.27900
H1749       H  0.24293643  0.90234267  0.03483383     0.18500
H1750       H  0.33712217  0.86195760  0.11362455     0.18500
C1751       C  0.28617267  0.12576149  0.15063561    -0.07400
C1752       C  0.30857746  0.15336041  0.15897655    -0.18500
C1753       C  0.29649630  0.18523746  0.17297493     0.09800
C1754       C  0.26006063  0.19131032  0.17823311    -0.07300
C1755       C  0.23732838  0.16412173  0.16850446    -0.18500
C1756       C  0.24979069  0.13177587  0.15515988     0.09900
S1757       S  0.32935741  0.21668182  0.18519687    -0.33500
S1758       S  0.21763668  0.09940491  0.14421130    -0.33500
H1759       H  0.23546860  0.08695172  0.11469089     0.27900
H1760       H  0.35710409  0.20239162  0.16597355     0.27900
H1761       H  0.33632435  0.14922322  0.15622342     0.18500
H1762       H  0.20959808  0.16763061  0.17224570     0.18500
C1763       C  0.28861420  0.99549125  0.15804889    -0.07400
C1764       C  0.25248028  0.98895235  0.15642406    -0.18500
C1765       C  0.23749784  0.95817821  0.17047359     0.09800
C1766       C  0.25887041  0.93275176  0.18708411    -0.07300
C1767       C  0.29507111  0.93932322  0.18783360    -0.18500
C1768       C  0.30987413  0.96990902  0.17415942     0.09900
S1769       S  0.19110359  0.95337935  0.16622714    -0.33500
S1770       S  0.35612706  0.97534650  0.18021691    -0.33500
H1771       H  0.35391852  0.01084878  0.18943845     0.27900
H1772       H  0.18625069  0.94236018  0.20067509     0.27900
H1773       H  0.23564781  0.00807688  0.14409164     0.18500
H1774       H  0.31243932  0.92059748  0.19999101     0.18500
C1775       C  0.12606187  0.11865058  0.32201787    -0.07400
C1776       C  0.15012518  0.13108687  0.34641835    -0.18500
C1777       C  0.17701071  0.15304733  0.33640188     0.09800
C1778       C  0.17935738  0.16436272  0.30141195    -0.07300
C1779       C  0.15534826  0.15205581  0.27678164    -0.18500
C1780       C  0.12878603  0.12910062  0.28673716     0.09900
S1781       S  0.20769508  0.16612301  0.36960729    -0.33500
S1782       S  0.09854861  0.11488132  0.25367219    -0.33500
H1783       H  0.07092719  0.10790068  0.27666261     0.27900
H1784       H  0.23567150  0.16954089  0.34631273     0.27900
H1785       H  0.14927844  0.12198767  0.37319809     0.18500
H1786       H  0.15606347  0.16186791  0.25028166     0.18500
C1787       C  0.12665285  0.99735805  0.32200812    -0.07400
C1788       C  0.14693079  0.98405888  0.34946424    -0.18500
C1789       C  0.17488432  0.96223359  0.34301429     0.09800
C1790       C  0.18194160  0.95202997  0.30853292    -0.07300
C1791       C  0.16208048  0.96534311  0.28086464    -0.18500
C1792       C  0.13447690  0.98819186  0.28728890     0.09900
S1793       S  0.20047488  0.94780239  0.37993468    -0.33500
S1794       S  0.10966811  0.00379601  0.25046932    -0.33500
H1795       H  0.07883171  0.01022474  0.26914473     0.27900
H1796       H  0.23127272  0.94172348  0.36103805     0.27900
H1797       H  0.14231936  0.99222915  0.37604705     0.18500
H1798       H  0.16657806  0.95640569  0.25498489     0.18500
C1799       C  0.28247874  0.41425834  0.78342014    -0.07400
C1800       C  0.29987567  0.43887878  0.76294391    -0.18500
C1801       C  0.31725074  0.46759494  0.77819377     0.09800
C1802       C  0.31847333  0.47130763  0.81507561    -0.07300
C1803       C  0.30326140  0.44555329  0.83547967    -0.18500
C1804       C  0.28435302  0.41813619  0.82075130     0.09900
S1805       S  0.33698135  0.49880686  0.74924176    -0.33500
S1806       S  0.26074895  0.39154741  0.85172662    -0.33500
H1807       H  0.28402445  0.39572346  0.87982679     0.27900
H1808       H  0.36284159  0.50961230  0.77290859     0.27900
H1809       H  0.29896910  0.43656322  0.73460365     0.18500
H1810       H  0.30315846  0.44879108  0.86356605     0.18500
C1811       C  0.16440632  0.44696036  0.69816356    -0.07400
C1812       C  0.15475527  0.44500545  0.66286199    -0.18500
C1813       C  0.15193990  0.47481068  0.64219491     0.09800
C1814       C  0.15764459  0.50796294  0.65712802    -0.07300
C1815       C  0.16870855  0.51006983  0.69205148    -0.18500
C1816       C  0.17175744  0.48008236  0.71280646     0.09900
S1817       S  0.14105298  0.46878033  0.59685698    -0.33500
S1818       S  0.18190576  0.48636666  0.75831284    -0.33500
H1819       H  0.15671353  0.46259370  0.77031572     0.27900
H1820       H  0.16085281  0.49722909  0.58488825     0.27900
H1821       H  0.14929702  0.41992957  0.65108125     0.18500
H1822       H  0.17268924  0.53540795  0.70402076     0.18500
C1823       C  0.39929103  0.24096232  0.65695756    -0.07400
C1824       C  0.38399998  0.27113402  0.64199870    -0.18500
C1825       C  0.35175259  0.28513925  0.65411664     0.09800
C1826       C  0.33441285  0.26970360  0.68301131    -0.07300
C1827       C  0.35047163  0.23989333  0.69785949    -0.18500
C1828       C  0.38178309  0.22549616  0.68533548     0.09900
S1829       S  0.33388516  0.32188481  0.63086775    -0.33500
S1830       S  0.39805638  0.18701911  0.70712527    -0.33500
H1831       H  0.43353718  0.19538180  0.70412544     0.27900
H1832       H  0.29911650  0.31081800  0.63301401     0.27900
H1833       H  0.39688675  0.28349450  0.62014461     0.18500
H1834       H  0.33882233  0.22763134  0.72030724     0.18500
C1835       C  0.35752573  0.34712757  0.80423671    -0.07400
C1836       C  0.36897406  0.37312584  0.78125335    -0.18500
C1837       C  0.39304297  0.39825095  0.79233754     0.09800
C1838       C  0.40530283  0.39748713  0.82708287    -0.07300
C1839       C  0.39366095  0.37153116  0.84986056    -0.18500
C1840       C  0.37055703  0.34605907  0.83863239     0.09900
S1841       S  0.40655217  0.43109547  0.76156414    -0.33500
S1842       S  0.35841247  0.31262432  0.86943557    -0.33500
H1843       H  0.35377830  0.28649477  0.84408426     0.27900
H1844       H  0.41406502  0.45685330  0.78664118     0.27900
H1845       H  0.35788935  0.37488161  0.75526520     0.18500
H1846       H  0.40410752  0.36991723  0.87612097     0.18500
C1847       C  0.29232601  0.13686457  0.84315862    -0.07400
C1848       C  0.30277174  0.14835699  0.81039016    -0.18500
C1849       C  0.28201574  0.17062489  0.79045534     0.09800
C1850       C  0.25100662  0.18564958  0.80478841    -0.07300
C1851       C  0.24055931  0.17438509  0.83791087    -0.18500
C1852       C  0.26024016  0.14934388  0.85672899     0.09900
S1853       S  0.29526241  0.17516945  0.74559562    -0.33500
S1854       S  0.24301573  0.13400774  0.89756831    -0.33500
H1855       H  0.27508788  0.12323094  0.91169790     0.27900
H1856       H  0.26145356  0.17073019  0.73246427     0.27900
H1857       H  0.32598254  0.13720324  0.79867812     0.18500
H1858       H  0.21701636  0.18525260  0.84948379     0.18500
C1859       C  0.15396398  0.16462927  0.69597642    -0.07400
C1860       C  0.12532935  0.16509907  0.67318614    -0.18500
C1861       C  0.10526148  0.13543319  0.66704689     0.09800
C1862       C  0.11452441  0.10350559  0.68340662    -0.07300
C1863       C  0.14094288  0.10381923  0.70883342    -0.18500
C1864       C  0.16023306  0.13396407  0.71579800     0.09900
S1865       S  0.06827322  0.13966919  0.63801774    -0.33500
S1866       S  0.19264493  0.13068262  0.74967234    -0.33500
H1867       H  0.18058986  0.16066532  0.76714713     0.27900
H1868       H  0.07687131  0.17225156  0.62349250     0.27900
H1869       H  0.11895315  0.18876285  0.65921312     0.18500
H1870       H  0.14767718  0.08004725  0.72265283     0.18500
C1871       C  0.02930893  0.21274181  0.68816437    -0.07400
C1872       C  0.05061718  0.23268827  0.66643118    -0.18500
C1873       C  0.08129622  0.24886759  0.67839289     0.09800
C1874       C  0.09260777  0.24495522  0.71384810    -0.07300
C1875       C  0.07150773  0.22405109  0.73562790    -0.18500
C1876       C  0.04022717  0.20824746  0.72334635     0.09900
S1877       S  0.10580885  0.27286944  0.64612374    -0.33500
S1878       S  0.01593497  0.18189995  0.75362365    -0.33500
H1879       H  0.00181171  0.15918621  0.72850934     0.27900
H1880       H  0.07810877  0.27928171  0.62289617     0.27900
H1881       H  0.04292616  0.23585566  0.63943145     0.18500
H1882       H  0.07926875  0.22007598  0.76253293     0.18500
C1883       C  0.08453261  0.35706451  0.81024914    -0.07400
C1884       C  0.08899052  0.38167371  0.83719053    -0.18500
C1885       C  0.06272504  0.38919075  0.86059774     0.09800
C1886       C  0.03030085  0.37234060  0.85686864    -0.07300
C1887       C  0.02789571  0.34352827  0.83408860    -0.18500
C1888       C  0.05466326  0.33569030  0.81076099     0.09900
S1889       S  0.07192653  0.42305358  0.89188947    -0.33500
S1890       S  0.04816244  0.29935633  0.78181894    -0.33500
H1891       H  0.08144927  0.28548087  0.78845914     0.27900
H1892       H  0.05100960  0.40799202  0.91795662     0.27900
H1893       H  0.11268110  0.39680203  0.83938693     0.18500
H1894       H  0.00394095  0.32869305  0.83225540     0.18500
C1895       C  0.30704557  0.22067513  0.05505532    -0.07400
C1896       C  0.27215046  0.22078172  0.06564490    -0.18500
C1897       C  0.26000878  0.24609592  0.08869420     0.09800
C1898       C  0.28339272  0.27141975  0.10126274    -0.07300
C1899       C  0.31773899  0.27220013  0.08943191    -0.18500
C1900       C  0.32978254  0.24737216  0.06618140     0.09900
S1901       S  0.21550820  0.24331838  0.10311153    -0.33500
S1902       S  0.37411820  0.25184486  0.05138653    -0.33500
H1903       H  0.36601309  0.24660322  0.01596293     0.27900
H1904       H  0.20998408  0.27957652  0.10272081     0.27900
H1905       H  0.25437384  0.20103161  0.05591142     0.18500
H1906       H  0.33572967  0.29149901  0.09964456     0.18500
C1907       C  0.30034095  0.19950297  0.93417310    -0.07400
C1908       C  0.26740063  0.21593491  0.93478948    -0.18500
C1909       C  0.25640470  0.23762370  0.90774110     0.09800
C1910       C  0.27871637  0.24295567  0.87919941    -0.07300
C1911       C  0.31013344  0.22406300  0.87734666    -0.18500
C1912       C  0.32117974  0.20235621  0.90397782     0.09900
S1913       S  0.21412768  0.25761217  0.91152849    -0.33500
S1914       S  0.36354685  0.18210507  0.89894577    -0.33500
H1915       H  0.36489209  0.18347067  0.86227635     0.27900
H1916       H  0.20478297  0.24956986  0.87697579     0.27900
H1917       H  0.25055214  0.21311008  0.95727486     0.18500
H1918       H  0.32741323  0.22728267  0.85532038     0.18500
C1919       C  0.13236989  0.36535945  0.06066867    -0.07400
C1920       C  0.12315966  0.33231302  0.07389670    -0.18500
C1921       C  0.13705842  0.31951042  0.10572447     0.09800
C1922       C  0.16187426  0.33959699  0.12463204    -0.07300
C1923       C  0.17066499  0.37268348  0.11095335    -0.18500
C1924       C  0.15664187  0.38543893  0.07966946     0.09900
S1925       S  0.12152039  0.27779493  0.12064537    -0.33500
S1926       S  0.17200753  0.42735463  0.06474352    -0.33500
H1927       H  0.17255470  0.41856418  0.02912680     0.27900
H1928       H  0.11733850  0.28842992  0.15542069     0.27900
H1929       H  0.10440579  0.31662034  0.05968941     0.18500
H1930       H  0.18943931  0.38894815  0.12439505     0.18500
C1931       C  0.13041758  0.36331685  0.93165263    -0.07400
C1932       C  0.11852632  0.33076645  0.91900042    -0.18500
C1933       C  0.13165278  0.31567603  0.88769199     0.09800
C1934       C  0.15795187  0.33300533  0.86817283    -0.07300
C1935       C  0.16902627  0.36583384  0.88106246    -0.18500
C1936       C  0.15605910  0.38073437  0.91196351     0.09900
S1937       S  0.11220163  0.27551439  0.87324234    -0.33500
S1938       S  0.17384931  0.42230431  0.92501753    -0.33500
H1939       H  0.17380353  0.41530285  0.96101503     0.27900
H1940       H  0.14407269  0.25812035  0.86891803     0.27900
H1941       H  0.09854236  0.31707734  0.93344887     0.18500
H1942       H  0.18822959  0.38062470  0.86682240     0.18500
C1943       C  0.60387610  0.36248107  0.22044612    -0.07400
C1944       C  0.60016546  0.39805407  0.22884501    -0.18500
C1945       C  0.57420483  0.41867199  0.21305596     0.09800
C1946       C  0.55129837  0.40339865  0.18860679    -0.07300
C1947       C  0.55440390  0.36783553  0.18099120    -0.18500
C1948       C  0.58022181  0.34722781  0.19647195     0.09900
S1949       S  0.57119589  0.46393460  0.22556459    -0.33500
S1950       S  0.58136027  0.30108546  0.18632782    -0.33500
H1951       H  0.55789837  0.30200173  0.15812178     0.27900
H1952       H  0.55664040  0.47588115  0.19408114     0.27900
H1953       H  0.61841873  0.41019191  0.24667736     0.18500
H1954       H  0.53573991  0.35597389  0.16342434     0.18500
C1955       C  0.42435834  0.40930737  0.18811625    -0.07400
C1956       C  0.39491708  0.41912552  0.16861760    -0.18500
C1957       C  0.36372340  0.40078884  0.17040666     0.09800
C1958       C  0.36102932  0.37187271  0.19348860    -0.07300
C1959       C  0.38905141  0.36470876  0.21612674    -0.18500
C1960       C  0.42049816  0.38328140  0.21409831     0.09900
S1961       S  0.32945972  0.41406305  0.14052344    -0.33500
S1962       S  0.45479969  0.37292065  0.24481931    -0.33500
H1963       H  0.43494592  0.35157911  0.26704240     0.27900
H1964       H  0.34206118  0.44774273  0.13319119     0.27900
H1965       H  0.39682537  0.44008302  0.14980454     0.18500
H1966       H  0.38662654  0.34390896  0.23505779     0.18500
C1967       C  0.52065006  0.22468455  0.33441202    -0.07400
C1968       C  0.54829536  0.20051732  0.33490818    -0.18500
C1969       C  0.57914298  0.20607691  0.31658217     0.09800
C1970       C  0.58351107  0.23737450  0.29737621    -0.07300
C1971       C  0.55663131  0.26227715  0.29764710    -0.18500
C1972       C  0.52538130  0.25652905  0.31592714     0.09900
S1973       S  0.61098776  0.17105150  0.31608311    -0.33500
S1974       S  0.49276770  0.29066738  0.31552619    -0.33500
H1975       H  0.50941144  0.31319228  0.29187781     0.27900
H1976       H  0.59787874  0.15212730  0.34462410     0.27900
H1977       H  0.54537254  0.17601528  0.34857385     0.18500
H1978       H  0.56033626  0.28652542  0.28369064     0.18500
C1979       C  0.39351026  0.23679945  0.34518836    -0.07400
C1980       C  0.37136382  0.21774875  0.32375632    -0.18500
C1981       C  0.34491438  0.23368790  0.30415756     0.09800
C1982       C  0.33853284  0.27063990  0.30679880    -0.07300
C1983       C  0.35993380  0.28961722  0.32986672    -0.18500
C1984       C  0.38747182  0.27329947  0.34851120     0.09900
S1985       S  0.32169795  0.20484281  0.27485936    -0.33500
S1986       S  0.41406602  0.30048172  0.37610316    -0.33500
H1987       H  0.42483259  0.27361006  0.39869136     0.27900
H1988       H  0.32838252  0.17340867  0.29268786     0.27900
H1989       H  0.37655773  0.19016823  0.32029182     0.18500
H1990       H  0.35574549  0.31743964  0.33286334     0.18500
C1991       C  0.30520083  0.49546564  0.18942946    -0.07400
C1992       C  0.32305857  0.47688580  0.21572535    -0.18500
C1993       C  0.30853811  0.44673733  0.23156230     0.09800
C1994       C  0.27581947  0.43368095  0.22019062    -0.07300
C1995       C  0.25793751  0.45317283  0.19443503    -0.18500
C1996       C  0.27181090  0.48380767  0.17965127     0.09900
S1997       S  0.33348909  0.42558928  0.26519646    -0.33500
S1998       S  0.24669511  0.50793787  0.14781671    -0.33500
H1999       H  0.21561198  0.48892268  0.15148196     0.27900
H2000       H  0.30562471  0.42523519  0.28896724     0.27900
H2001       H  0.34838691  0.48602322  0.22416949     0.18500
H2002       H  0.23272872  0.44420543  0.18554529     0.18500
C2003       C  0.27971542  0.68928551  0.21226354    -0.07400
C2004       C  0.27018182  0.67722971  0.17862726    -0.18500
C2005       C  0.28256294  0.64561429  0.16448879     0.09800
C2006       C  0.30585073  0.62439200  0.18366832    -0.07300
C2007       C  0.31569540  0.63605741  0.21723074    -0.18500
C2008       C  0.30314236  0.66791418  0.23156329     0.09900
S2009       S  0.26692029  0.63357485  0.12176671    -0.33500
S2010       S  0.31874488  0.67998047  0.27415030    -0.33500
H2011       H  0.28529403  0.68498613  0.28811416     0.27900
H2012       H  0.26518846  0.59751508  0.12843164     0.27900
H2013       H  0.25242314  0.69254029  0.16278973     0.18500
H2014       H  0.33349059  0.62022381  0.23246915     0.18500
C2015       C  0.15419519  0.49640778  0.35252305    -0.07400
C2016       C  0.17834253  0.49992718  0.32524247    -0.18500
C2017       C  0.18325472  0.47318289  0.30112254     0.09800
C2018       C  0.16538171  0.44122720  0.30572383    -0.07300
C2019       C  0.14544512  0.43638596  0.33599030    -0.18500
C2020       C  0.13967898  0.46329870  0.35922196     0.09900
S2021       S  0.20999546  0.48328367  0.26397469    -0.33500
S2022       S  0.11056898  0.45401982  0.39466395    -0.33500
H2023       H  0.12778304  0.47640677  0.41818024     0.27900
H2024       H  0.18301353  0.47709225  0.23984801     0.27900
H2025       H  0.19052715  0.52489590  0.32009730     0.18500
H2026       H  0.13276744  0.41171433  0.34123914     0.18500
C2027       C  0.15933576  0.67463613  0.29445689    -0.07400
C2028       C  0.12792231  0.67558094  0.31320486    -0.18500
C2029       C  0.11934182  0.65024232  0.33726911     0.09800
C2030       C  0.14185595  0.62130514  0.34181503    -0.07300
C2031       C  0.17365681  0.62050636  0.32342930    -0.18500
C2032       C  0.18230884  0.64638237  0.29942672     0.09900
S2033       S  0.07904971  0.65752381  0.36040311    -0.33500
S2034       S  0.22241378  0.64111260  0.27579843    -0.33500
H2035       H  0.20602264  0.64241234  0.24294046     0.27900
H2036       H  0.09288206  0.64737699  0.39270576     0.27900
H2037       H  0.10961714  0.69688582  0.30969917     0.18500
H2038       H  0.19143699  0.59872424  0.32640331     0.18500
C2039       C  0.16241487  0.39167590  0.43081161    -0.07400
C2040       C  0.14433372  0.36551831  0.41301490    -0.18500
C2041       C  0.15715856  0.35017055  0.38210698     0.09800
C2042       C  0.18962483  0.36132405  0.36735848    -0.07300
C2043       C  0.20773229  0.38786100  0.38537873    -0.18500
C2044       C  0.19449177  0.40310260  0.41648079     0.09900
S2045       S  0.13076434  0.31615886  0.36261407    -0.33500
S2046       S  0.21921134  0.43787604  0.43610879    -0.33500
H2047       H  0.19056856  0.45534778  0.45087330     0.27900
H2048       H  0.10525764  0.31361393  0.38875401     0.27900
H2049       H  0.11986421  0.35673886  0.42387813     0.18500
H2050       H  0.23212639  0.39729756  0.37489382     0.18500
C2051       C  0.16084967  0.38882833  0.55997024    -0.07400
C2052       C  0.19442491  0.39703886  0.57230880    -0.18500
C2053       C  0.20640865  0.38508343  0.60515057     0.09800
C2054       C  0.18514885  0.36290141  0.62571916    -0.07300
C2055       C  0.15152657  0.35522393  0.61295540    -0.18500
C2056       C  0.13940552  0.36751512  0.58081775     0.09900
S2057       S  0.24821261  0.40024055  0.61980308    -0.33500
S2058       S  0.09629257  0.35413695  0.56760192    -0.33500
H2059       H  0.10403823  0.35118545  0.53187078     0.27900
H2060       H  0.23562889  0.41086718  0.65262774     0.27900
H2061       H  0.21088330  0.41400375  0.55691156     0.18500
H2062       H  0.13409880  0.33917374  0.62811446     0.18500
C2063       C  0.32777816  0.22632521  0.43145244    -0.07400
C2064       C  0.31377821  0.26036072  0.42976887    -0.18500
C2065       C  0.29025298  0.26980775  0.40359364     0.09800
C2066       C  0.28106952  0.24492517  0.37818400    -0.07300
C2067       C  0.29730666  0.21207163  0.37850425    -0.18500
C2068       C  0.32098471  0.20273222  0.40384549     0.09900
S2069       S  0.27324134  0.31361706  0.40395320    -0.33500
S2070       S  0.33884363  0.15926279  0.39934610    -0.33500
H2071       H  0.37281320  0.16931530  0.40802277     0.27900
H2072       H  0.23866384  0.30253301  0.40878130     0.27900
H2073       H  0.31942879  0.27907388  0.45020057     0.18500
H2074       H  0.29165508  0.19290877  0.35848663     0.18500
C2075       C  0.31499851  0.22970731  0.55662049    -0.07400
C2076       C  0.28839568  0.25453492  0.55078829    -0.18500
C2077       C  0.26499915  0.26371007  0.57710964     0.09800
C2078       C  0.26781792  0.24724780  0.60985138    -0.07300
C2079       C  0.29668056  0.22547273  0.61645254    -0.18500
C2080       C  0.32012557  0.21643422  0.59054174     0.09900
S2081       S  0.23181817  0.29529524  0.56673763    -0.33500
S2082       S  0.35563406  0.18730913  0.60177688    -0.33500
H2083       H  0.34402582  0.17757179  0.63515137     0.27900
H2084       H  0.24038572  0.31659125  0.59538277     0.27900
H2085       H  0.28461520  0.26581023  0.52513123     0.18500
H2086       H  0.30061723  0.21450004  0.64214291     0.18500
loop_ 
_geom_bond_atom_site_label_1 
_geom_bond_atom_site_label_2 
_geom_bond_distance 
_geom_bond_site_symmetry_2 
_ccdc_geom_bond_type 
C1            N2   1.353       .  A
C1            N6   1.356       .  A
C1         C2075   1.474       .  S
N2            C3   1.354       .  A
C3            N4   1.349       .  A
C3         C2063   1.469       .  S
N4            C5   1.344       .  A
C5            N6   1.348       .  A
C5          C863   1.449       .  S
C7            N8   1.373       .  A
C7           N12   1.364       .  A
C7         C2039   1.510       .  S
N8            C9   1.368       .  A
C9           N10   1.360       .  A
C9          C761   1.507       .  S
N10          C11   1.365       .  A
C11          N12   1.365       .  A
C11        C2051   1.492       .  S
C13          N14   1.353       .  A
C13          N18   1.350       .  A
C13        C2015   1.469       .  S
N14          C15   1.354       .  A
C15          N16   1.352       .  A
C15        C2030   1.474       .  S
N16          C17   1.346       .  A
C17          N18   1.342       .  A
C17         C784   1.444       .  S
C19          N20   1.372       .  A
C19          N24   1.364       .  A
C19        C1991   1.503       .  S
N20          C21   1.371       .  A
C21          N22   1.371       .  A
C21         C818   1.519       .  S
N22          C23   1.373       .  A
C23          N24   1.363       .  A
C23        C2006   1.512       .  S
C25          N26   1.359       .  A
C25          N30   1.357       .  A
C25        C1967   1.500       .  S
N26          C27   1.354       .  A
C27          N28   1.370       .  A
C27         C886   1.500       .  S
N28          C29   1.377       .  A
C29          N30   1.359       .  A
C29        C1979   1.498       .  S
C31          N32   1.352       .  A
C31          N36   1.353       .  A
C31        C1955   1.491       .  S
N32          C33   1.349       .  A
C33          N34   1.364       .  A
C33         C806   1.473       .  S
N34          C35   1.368       .  A
C35          N36   1.359       .  A
C35        C1946   1.472       .  S
C37          N38   1.373       .  A
C37          N42   1.365       .  A
C37        C1931   1.511       .  S
N38          C39   1.369       .  A
C39          N40   1.364   1_556  A
C39         C528   1.511       .  S
N40          C41   1.367       .  A
C41          N42   1.366   1_554  A
C41        C1919   1.498       .  S
C43          N44   1.348       .  A
C43          N48   1.353       .  A
C43        C1907   1.471       .  S
N44          C45   1.345   1_556  A
C45          N46   1.353       .  A
C45        C1895   1.447       .  S
N46          C47   1.352   1_554  A
C47          N48   1.351       .  A
C47         C561   1.448   1_556  S
O49          C76   1.271       .  A
O49         Mn75   2.101       .  S
C50        C2078   1.475       .  S
C50          O83   1.269       .  A
C50          O80   1.260       .  A
O51         Mn58   2.174       .  S
O51         Mn69   2.094       .  S
O51         Mn73   2.177       .  S
O51         Mn75   2.094       .  S
O52          C62   1.276       .  A
O52         Mn86   2.106       .  S
O53          C76   1.261       .  A
O53         Mn69   2.032       .  S
O54          C81   1.267       .  A
O54         Mn73   2.183       .  S
O55         Mn86   1.948       .  S
O55         Mn75   1.965       .  S
O55          C71   1.216       .  S
C56        C1850   1.501       .  S
C56          O59   1.270       .  A
C56          O82   1.217       .  A
O57         Mn77   2.092       .  S
O57         Mn58   2.158       .  S
O57         Mn91   2.083       .  S
O57         Mn73   2.184       .  S
Mn58         O87   2.192       .  S
Mn58         O63   2.192       .  S
Mn58         O90   2.149       .  S
Mn58         O64   2.174       .  S
O59         Mn73   2.194       .  S
O60          C62   1.263       .  A
O60         Mn67   2.067       .  S
C61        C1826   1.531       .  S
C61          O87   1.268       .  A
C61          O74   1.217       .  S
C62        C1859   1.487       .  S
O63          C88   1.271       .  A
O64         Mn67   2.078       .  S
O64         Mn86   2.094       .  S
O64         Mn73   2.171       .  S
O65         Mn69   1.967       .  S
O65         Mn91   1.960       .  S
O65          C88   1.215       .  A
C66        C1910   1.468       .  S
C66          O92   1.263       .  A
C66          O68   1.268       .  A
Mn67         O80   2.035       .  S
Mn67         O82   1.957       .  S
Mn67         O74   1.980       .  S
O68         Mn91   2.065       .  S
Mn69         O85   2.077       .  S
Mn69         O79   1.972       .  S
O70          C72   1.275       .  A
O70         Mn75   2.104       .  S
C71        C1874   1.533       .  S
C71          O89   1.272       .  A
C72        C1811   1.481       .  S
C72          O85   1.269       .  A
Mn73         O89   2.199       .  S
O74         Mn77   1.968       .  S
Mn75         O93   1.965       .  S
C76        C1883   1.479       .  S
Mn77         O84   2.076       .  S
Mn77         O92   2.034       .  S
Mn77         O82   1.944       .  S
C78        C1835   1.456       .  S
C78          O84   1.269       .  A
C78          O94   1.265       .  A
O79         Mn91   1.976       .  S
O79          C81   1.218       .  S
C81        C1934   1.530       .  S
O83         Mn86   2.097       .  S
Mn86         O93   1.967       .  S
C88        C1799   1.504       .  S
O90          C95   1.264       .  A
Mn91         O94   2.070       .  S
O93          C95   1.221       .  S
C95        C2054   1.510       .  S
C96          N97   1.349       .  A
C96         N101   1.353       .  A
C96        C1787   1.454   1_545  S
N97          C98   1.350       .  A
C98          N99   1.362       .  A
C98        C1775   1.463       .  S
N99         C100   1.360       .  A
C100        N101   1.350       .  A
C100        C483   1.460       .  S
C102        N103   1.368       .  A
C102        N107   1.366       .  A
C102       C1763   1.510   1_545  S
N103        C104   1.365       .  A
C104        N105   1.372       .  A
C104        C573   1.513       .  S
N105        C106   1.377       .  A
C106        N107   1.368       .  A
C106       C1751   1.523       .  S
O108        C135   1.270       .  A
O108       Mn134   2.083       .  S
C109       C2027   1.469       .  S
C109        O142   1.267       .  A
C109        O139   1.266       .  A
O110       Mn117   2.175       .  S
O110       Mn128   2.091       .  S
O110       Mn132   2.171       .  S
O110       Mn134   2.087       .  S
O111        C121   1.263       .  A
O111       Mn145   2.053       .  S
O112        C135   1.270       .  A
O112       Mn128   2.074       .  S
O113        C140   1.268       .  A
O113       Mn132   2.161       .  S
O114       Mn145   1.911       .  S
O114       Mn134   1.929       .  S
O114        C130   1.206       .  S
C115       C1703   1.526       .  S
C115        O118   1.269       .  A
C115        O141   1.214       .  S
O116       Mn136   2.090       .  S
O116       Mn117   2.172       .  S
O116       Mn150   2.109       .  S
O116       Mn132   2.169       .  S
Mn117       O146   2.186       .  S
Mn117       O122   2.170       .  S
Mn117       O149   2.174       .  S
Mn117       O123   2.162       .  S
O118       Mn132   2.189       .  S
O119        C121   1.270       .  A
O119       Mn126   2.088       .  S
C120       C1679   1.515       .  S
C120        O146   1.269       .  A
C120        O133   1.208       .  S
C121       C1718   1.452       .  S
O122        C147   1.264       .  A
O123       Mn126   2.087       .  S
O123       Mn145   2.091       .  S
O123       Mn132   2.166       .  S
O124       Mn128   1.942       .  S
O124       Mn150   1.932       .  S
O124        C147   1.217       .  S
C125       C1790   1.444       .  S
C125        O151   1.262       .  A
C125        O127   1.265       .  A
Mn126       O139   2.060       .  S
Mn126       O141   1.965       .  S
Mn126       O133   1.928       .  S
O127       Mn150   2.070       .  S
Mn128       O144   2.083       .  S
Mn128       O138   1.962       .  S
O129        C131   1.264       .  A
O129       Mn134   2.059       .  S
C130       C1727   1.509       .  S
C130        O148   1.266       .  A
C131       C1667   1.474       .  S
C131        O144   1.266       .  A
Mn132       O148   2.189       .  S
O133       Mn136   1.944       .  S
Mn134       O152   1.968       .  S
C135       C1742   1.466       .  S
Mn136       O143   2.076       .  S
Mn136       O151   2.057       .  S
Mn136       O141   1.962       .  S
C137       C1694   1.484       .  S
C137        O143   1.268       .  A
C137        O153   1.272       .  A
O138       Mn150   1.971       .  S
O138        C140   1.224       .  S
C140       C1766   1.520       .  S
O142       Mn145   2.072       .  S
Mn145       O152   1.960       .  S
C147       C1655   1.516       .  S
O149        C154   1.266       .  A
Mn150       O153   2.086       .  S
O152        C154   1.218       .  S
C154       C2003   1.527       .  S
C155        N156   1.352       .  A
C155        N160   1.354       .  A
C155       C1646   1.477       .  S
N156        C157   1.351       .  A
C157        N158   1.368   1_655  A
C157        C506   1.484       .  S
N158        C159   1.375       .  A
C159        N160   1.359   1_455  A
C159       C1631   1.490       .  S
C161        N162   1.352       .  A
C161        N166   1.353       .  A
C161       C1607   1.471   1_655  S
N162        C163   1.358       .  A
C163        N164   1.364       .  A
C163       C1619   1.466       .  S
N164        C165   1.361       .  A
C165        N166   1.354       .  A
C165        C516   1.468       .  S
O167        C194   1.267       .  A
O167       Mn193   2.077       .  S
C168       C1970   1.487       .  S
C168        O201   1.266       .  A
C168        O198   1.274       .  A
O169       Mn176   2.162       .  S
O169       Mn187   2.095       .  S
O169       Mn191   2.168       .  S
O169       Mn193   2.098       .  S
O170        C180   1.273       .  A
O170       Mn204   2.102       .  S
O171        C194   1.267       .  A
O171       Mn187   2.087       .  S
O172        C199   1.255       .  A
O172       Mn191   2.126       .  S
O173       Mn204   1.952       .  S
O173       Mn193   1.946       .  S
O173        C189   1.213       .  S
C174       C1595   1.477       .  S
C174        O177   1.254       .  A
C174        O200   1.210       .  S
O175       Mn195   2.098       .  S
O175       Mn176   2.169       .  S
O175       Mn209   2.100       .  S
O175       Mn191   2.167       .  S
Mn176       O205   2.130       .  S
Mn176       O181   2.138       .  S
Mn176       O208   2.121       .  S
Mn176       O182   2.177       .  S
O177       Mn191   2.122       .  S
O178        C180   1.267       .  A
O178       Mn185   2.067       .  S
C179       C1943   1.484       .  S
C179        O205   1.256       .  A
C179        O192   1.212       .  S
C180       C1562   1.474       .  S
O181        C206   1.256       .  A
O182       Mn185   2.094       .  S
O182       Mn204   2.105       .  S
O182       Mn191   2.168       .  S
O183       Mn187   1.934       .  S
O183       Mn209   1.945       .  S
O183        C206   1.208       .  S
C184       C1583   1.478       .  S
C184        O210   1.274       .  A
C184        O186   1.268       .  A
Mn185       O198   2.107       .  S
Mn185       O200   1.945       .  S
Mn185       O192   1.949       .  S
O186       Mn209   2.071       .  S
Mn187       O203   2.076       .  S
Mn187       O197   1.948       .  S
O188        C190   1.270       .  A
O188       Mn193   2.086       .  S
C189       C1571   1.482       .  S
C189        O207   1.254       .  A
C190       C1535   1.488       .  S
C190        O203   1.271       .  A
Mn191       O207   2.124       .  S
O192       Mn195   1.946       .  S
Mn193       O211   1.953       .  S
C194       C1643   1.465       .  S
Mn195       O202   2.056       .  S
Mn195       O210   2.105       .  S
Mn195       O200   1.945       .  S
C196       C1511   1.480       .  S
C196        O202   1.267       .  A
C196        O212   1.270       .  A
O197       Mn209   1.943       .  S
O197        C199   1.211       .  S
C199       C1622   1.480       .  S
O201       Mn204   2.072       .  S
Mn204       O211   1.937       .  S
C206       C1526   1.481       .  S
O208        C213   1.254       .  A
Mn209       O212   2.095       .  S
O211        C213   1.215       .  S
C213       C1550   1.491       .  S
C214        N215   1.352       .  A
C214        N219   1.353   1_556  A
C214       C1502   1.472       .  S
N215        C216   1.352   1_556  A
C216        N217   1.360       .  A
C216        C562   1.464       .  S
N217        C218   1.364       .  A
C218        N219   1.356       .  A
C218       C1598   1.460       .  S
C220        N221   1.355   1_554  A
C220        N225   1.355       .  A
C220       C1586   1.492       .  S
N221        C222   1.361       .  A
C222        N223   1.378       .  A
C222       C1487   1.506       .  S
N223        C224   1.371       .  A
C224        N225   1.353   1_556  A
C224        C539   1.494       .  S
C226        N227   1.374       .  A
C226        N231   1.369       .  A
C226       C1475   1.512       .  S
N227        C228   1.370       .  A
C228        N229   1.366       .  A
C228        C507   1.515       .  S
N229        C230   1.370       .  A
C230        N231   1.368       .  A
C230       C1871   1.514   1_655  S
C232        N233   1.349       .  A
C232        N237   1.351       .  A
C232       C1886   1.476   1_655  S
N233        C234   1.350       .  A
C234        N235   1.357       .  A
C234       C1463   1.454       .  S
N235        C236   1.353       .  A
C236        N237   1.348       .  A
C236        C551   1.451       .  S
O238        C265   1.264       .  A
O238       Mn264   2.065       .  S
C239       C1391   1.441       .  S
C239        O272   1.262       .  A
C239        O269   1.264       .  A
O240       Mn247   2.178       .  S
O240       Mn258   2.094       .  S
O240       Mn262   2.168       .  S
O240       Mn264   2.092       .  S
O241        C251   1.269       .  A
O241       Mn275   2.081       .  S
O242        C265   1.268       .  A
O242       Mn258   2.077       .  S
O243        C270   1.264       .  A
O243       Mn262   2.183       .  S
O244       Mn275   1.945       .  S
O244       Mn264   1.940       .  S
O244        C260   1.213       .  S
C245       C1454   1.514       .  S
C245        O248   1.265       .  A
C245        O271   1.218       .  S
O246       Mn266   2.110       .  S
O246       Mn247   2.175       .  S
O246       Mn280   2.103       .  S
O246       Mn262   2.186       .  S
Mn247       O276   2.184       .  S
Mn247       O252   2.184       .  S
Mn247       O279   2.184       .  S
Mn247       O253   2.185       .  S
O248       Mn262   2.164       .  S
O249        C251   1.273       .  A
O249       Mn256   2.086       .  S
C250       C1406   1.523       .  S
C250        O276   1.269       .  A
C250        O263   1.217       .  S
C251       C1499   1.482       .  S
O252        C277   1.268       .  A
O253       Mn256   2.108       .  S
O253       Mn275   2.113       .  S
O253       Mn262   2.169       .  S
O254       Mn258   1.924       .  S
O254       Mn280   1.938       .  S
O254        C277   1.211       .  S
C255       C1439   1.438       .  S
C255        O281   1.263       .  A
C255        O257   1.263       .  A
Mn256       O269   2.072       .  S
Mn256       O271   1.955       .  S
Mn256       O263   1.957       .  S
O257       Mn280   2.047       .  S
Mn258       O274   2.046       .  S
Mn258       O268   1.945       .  S
O259        C261   1.269       .  A
O259       Mn264   2.088       .  S
C260       C1490   1.511       .  S
C260        O278   1.270       .  A
C261       C1370   1.462       .  S
C261        O274   1.263       .  A
Mn262       O278   2.182       .  S
O263       Mn266   1.943       .  S
Mn264       O282   1.954       .  S
C265       C1466   1.449       .  S
Mn266       O273   2.080       .  S
Mn266       O281   2.067       .  S
Mn266       O271   1.952       .  S
C267       C1415   1.486       .  S
C267        O273   1.273       .  A
C267        O283   1.269       .  A
O268       Mn280   1.952       .  S
O268        C270   1.216       .  S
C270       C1478   1.529       .  S
O272       Mn275   2.044       .  S
Mn275       O282   1.944       .  S
C277       C1427   1.512       .  S
O279        C284   1.265       .  A
Mn280       O283   2.079       .  S
O282        C284   1.216       .  S
C284       C1379   1.527       .  S
C285        N286   1.351   1_556  A
C285        N290   1.355       .  A
C285       C1355   1.489       .  S
N286        C287   1.357       .  A
C287        N288   1.374       .  A
C287       C1730   1.487       .  S
N288        C289   1.369       .  A
C289        N290   1.352   1_554  A
C289        C527   1.484       .  S
C291        N292   1.346       .  A
C291        N296   1.350   1_554  A
C291       C1739   1.468       .  S
N292        C293   1.349   1_554  A
C293        N294   1.366       .  A
C293        C596   1.471       .  S
N294        C295   1.371       .  A
C295        N296   1.357       .  A
C295       C1343   1.474       .  S
C297        N298   1.359       .  A
C297        N302   1.368       .  A
C297       C1334   1.472   1_545  S
N298        C299   1.356       .  A
C299        N300   1.347       .  A
C299       C1862   1.487       .  S
N300        C301   1.348       .  A
C301        N302   1.362       .  A
C301        C482   1.470       .  S
C303        N304   1.348       .  A
C303        N308   1.356       .  A
C303       C1322   1.491       .  S
N304        C305   1.349       .  A
C305        N306   1.369       .  A
C305        C584   1.489       .  S
N306        C307   1.377       .  A
C307        N308   1.360       .  A
C307       C1847   1.485       .  S
O309        C336   1.271       .  A
O309       Mn335   2.102       .  S
C310       C1358   1.488       .  S
C310        O343   1.272       .  A
C310        O340   1.261       .  A
O311       Mn318   2.173       .  S
O311       Mn329   2.099       .  S
O311       Mn333   2.177       .  S
O311       Mn335   2.099       .  S
O312        C322   1.269       .  A
O312       Mn346   2.069       .  S
O313        C336   1.271       .  A
O313       Mn329   2.083       .  S
O314        C341   1.254       .  A
O314       Mn333   2.131       .  S
O315       Mn346   1.976       .  S
O315       Mn335   1.975       .  S
O315        C331   1.217       .  A
C316       C1226   1.482       .  S
C316        O319   1.255       .  A
C316        O342   1.209       .  S
O317       Mn337   2.099       .  S
O317       Mn318   2.175       .  S
O317       Mn351   2.102       .  S
O317       Mn333   2.177       .  S
Mn318       O347   2.134       .  S
Mn318       O323   2.134       .  S
Mn318       O350   2.142       .  S
Mn318       O324   2.178       .  S
O319       Mn333   2.132       .  S
O320        C322   1.274       .  A
O320       Mn327   2.113       .  S
C321       C1295   1.484       .  S
C321        O347   1.257       .  A
C321        O334   1.212       .  S
C322       C1235   1.500       .  S
O323        C348   1.257       .  A
O324       Mn327   2.100       .  S
O324       Mn346   2.093       .  S
O324       Mn333   2.173       .  S
O325       Mn329   1.953       .  S
O325       Mn351   1.946       .  S
O325        C348   1.213       .  S
C326       C1283   1.480       .  S
C326        O352   1.268       .  A
C326        O328   1.274       .  A
Mn327       O340   2.056       .  S
Mn327       O342   1.944       .  S
Mn327       O334   1.942       .  S
O328       Mn351   2.112       .  S
Mn329       O345   2.103       .  S
Mn329       O339   1.950       .  S
O330        C332   1.267       .  A
O330       Mn335   2.052       .  S
C331       C1247   1.475       .  S
C331        O349   1.259       .  A
C332       C1319   1.487       .  S
C332        O345   1.273       .  A
Mn333       O349   2.138       .  S
O334       Mn337   1.944       .  S
Mn335       O353   1.954       .  S
C336       C1262   1.499       .  S
Mn337       O344   2.103       .  S
Mn337       O352   2.073       .  S
Mn337       O342   1.947       .  S
C338       C1310   1.486       .  S
C338        O344   1.272       .  A
C338        O354   1.270       .  A
O339       Mn351   1.944       .  S
O339        C341   1.211       .  S
C341       C1271   1.486       .  S
O343       Mn346   2.089       .  S
Mn346       O353   1.959       .  S
C348       C1331   1.489       .  S
O350        C355   1.257       .  A
Mn351       O354   2.070       .  S
O353        C355   1.210       .  S
C355       C1346   1.486       .  S
C356        N357   1.347       .  A
C356        N361   1.356       .  A
C356       C1214   1.462       .  S
N357        C358   1.348   1_655  A
C358        N359   1.360       .  A
C358       C1715   1.456       .  S
N359        C360   1.356   1_455  A
C360        N361   1.353       .  A
C360        C517   1.459       .  S
C362        N363   1.371       .  A
C362        N367   1.368       .  A
C362       C1199   1.516       .  S
N363        C364   1.372   1_655  A
C364        N365   1.374       .  A
C364       C1706   1.517       .  S
N365        C366   1.367   1_455  A
C366        N367   1.361       .  A
C366        C471   1.507       .  S
C368        N369   1.350       .  A
C368        N373   1.354       .  A
C368       C1190   1.466       .  S
N369        C370   1.349       .  A
C370        N371   1.357       .  A
C370        C494   1.462       .  S
N371        C372   1.364       .  A
C372        N373   1.360       .  A
C372       C1574   1.474       .  S
C374        N375   1.359       .  A
C374        N379   1.375       .  A
C374       C1175   1.482   1_545  S
N375        C376   1.353       .  A
C376        N377   1.354       .  A
C376       C1559   1.486       .  S
N377        C378   1.353       .  A
C378        N379   1.370       .  A
C378        C572   1.489       .  S
O380        C407   1.261       .  A
O380       Mn406   2.026       .  S
C381       C1211   1.448       .  S
C381        O414   1.263       .  A
C381        O411   1.271       .  A
O382       Mn389   2.181       .  S
O382       Mn400   2.106       .  S
O382       Mn404   2.185       .  S
O382       Mn406   2.094       .  S
O383        C393   1.269       .  A
O383       Mn417   2.089       .  S
O384        C407   1.269       .  A
O384       Mn400   2.087       .  S
O385        C412   1.269       .  A
O385       Mn404   2.191       .  S
O386       Mn417   1.928       .  S
O386       Mn406   1.925       .  S
O386        C402   1.209       .  S
C387       C1139   1.529       .  S
C387        O390   1.269       .  A
C387        O413   1.217       .  S
O388       Mn408   2.099       .  S
O388       Mn389   2.179       .  S
O388       Mn422   2.098       .  S
O388       Mn404   2.172       .  S
Mn389       O418   2.167       .  S
Mn389       O394   2.178       .  S
Mn389       O421   2.187       .  S
Mn389       O395   2.170       .  S
O390       Mn404   2.185       .  S
O391        C393   1.265       .  A
O391       Mn398   2.071       .  S
C392       C1202   1.518       .  S
C392        O418   1.269       .  A
C392        O405   1.220       .  S
C393       C1079   1.476       .  S
O394        C419   1.264       .  A
O395       Mn398   2.114       .  S
O395       Mn417   2.098       .  S
O395       Mn404   2.189       .  S
O396       Mn400   1.924       .  S
O396       Mn422   1.923       .  S
O396        C419   1.208       .  S
C397       C1130   1.478       .  S
C397        O423   1.269       .  A
C397        O399   1.264       .  A
Mn398       O411   2.089       .  S
Mn398       O413   1.938       .  S
Mn398       O405   1.972       .  S
O399       Mn422   2.049       .  S
Mn400       O416   2.055       .  S
Mn400       O410   1.952       .  S
O401        C403   1.269       .  A
O401       Mn406   2.091       .  S
C402       C1091   1.501       .  S
C402        O420   1.264       .  A
C403       C1151   1.459       .  S
C403        O416   1.265       .  A
Mn404       O420   2.179       .  S
O405       Mn408   1.972       .  S
Mn406       O424   1.940       .  S
C407       C1103   1.462       .  S
Mn408       O415   2.096       .  S
Mn408       O423   2.089       .  S
Mn408       O413   1.957       .  S
C409       C1187   1.463       .  S
C409        O415   1.269       .  A
C409        O425   1.263       .  A
O410       Mn422   1.957       .  S
O410        C412   1.215       .  S
C412       C1115   1.525       .  S
O414       Mn417   2.037       .  S
Mn417       O424   1.958       .  S
C419       C1178   1.499       .  S
O421        C426   1.266       .  A
Mn422       O425   2.074       .  S
O424        C426   1.213       .  S
C426       C1163   1.522       .  S
C427        N428   1.358       .  A
C427        N432   1.353   1_554  A
C427       C1154   1.470       .  S
N428        C429   1.354   1_554  A
C429        N430   1.348       .  A
C429        C597   1.454       .  S
N430        C431   1.354       .  A
C431        N432   1.353       .  A
C431       C1067   1.467       .  S
C433        N434   1.369       .  A
C433        N438   1.364   1_556  A
C433       C1058   1.508       .  S
N434        C435   1.365   1_556  A
C435        N436   1.371       .  A
C435        C538   1.513   1_554  S
N436        C437   1.374       .  A
C437        N438   1.366       .  A
C437       C1166   1.504       .  S
C439        N440   1.351       .  A
C439        N444   1.354       .  A
C439       C1442   1.449       .  S
N440        C441   1.352       .  A
C441        N442   1.352       .  A
C441       C1046   1.471   1_545  S
N442        C443   1.350       .  A
C443        N444   1.348       .  A
C443        C493   1.448       .  S
C445        N446   1.368       .  A
C445        N450   1.364       .  A
C445       C1451   1.497       .  S
N446        C447   1.365       .  A
C447        N448   1.373       .  A
C447        C583   1.514       .  S
N448        C449   1.375       .  A
C449        N450   1.365       .  A
C449       C1034   1.512   1_545  S
C451        N452   1.359       .  A
C451        N456   1.348       .  A
C451       C1307   1.493   1_655  S
N452        C453   1.362       .  A
C453        N454   1.380       .  A
C453       C1019   1.498       .  S
N454        C455   1.371       .  A
C455        N456   1.347       .  A
C455        C472   1.496       .  S
C457        N458   1.349       .  A
C457        N462   1.352       .  A
C457       C1007   1.474       .  S
N458        C459   1.350       .  A
C459        N460   1.365   1_655  A
C459        C552   1.471       .  S
N460        C461   1.370       .  A
C461        N462   1.356   1_455  A
C461       C1298   1.469       .  S
N463        N464   1.329       .  A
N463        N469   1.314       .  A
N463       Mn492   2.242   1_565  S
N464        C471   1.361       .  A
N465        N467   1.315       .  A
N465        N466   1.320       .  A
N465       Mn481   2.230   1_665  S
N466        C472   1.357       .  A
N467        N468   1.333       .  A
N467       Mn492   2.224   1_565  S
N468        C472   1.358       .  A
N469        N470   1.329       .  A
N469       Mn481   2.237   1_665  S
N470        C471   1.359       .  A
N473        N479   1.318       .  A
N473        N474   1.315       .  A
N473       Mn503   2.205       .  S
N474        C482   1.351       .  A
N475        N476   1.319       .  A
N475        N477   1.319       .  A
N475       Mn481   2.204       .  S
N476        C483   1.351       .  A
N477        N478   1.320       .  A
N477       Mn503   2.192       .  S
N478        C483   1.346       .  A
N479        N480   1.327       .  A
N479       Mn481   2.216       .  S
N480        C482   1.353       .  A
Mn481      Cl505   2.550   1_455  S
N484        N485   1.316       .  A
N484        N490   1.318       .  A
N484       Mn492   2.189       .  S
N485        C493   1.346       .  A
N486        N488   1.318       .  A
N486        N487   1.325       .  A
N486       Mn504   2.218       .  S
N487        C494   1.354       .  A
N488        N489   1.315       .  A
N488       Mn492   2.189       .  S
N489        C494   1.348       .  A
N490        N491   1.318       .  A
N490       Mn504   2.183       .  S
N491        C493   1.347       .  A
Mn492      Cl505   2.549       .  S
N495        N496   1.329   1_655  A
N495        N501   1.314       .  A
N495       Mn503   2.222   1_655  S
N496        C506   1.356   1_455  A
N497        N498   1.331       .  A
N497        N499   1.316       .  A
N497       Mn504   2.247       .  S
N498        C507   1.360       .  A
N499        N500   1.330       .  A
N499       Mn503   2.252   1_655  S
N500        C507   1.362       .  A
N501        N502   1.320       .  A
N501       Mn504   2.207       .  S
N502        C506   1.354       .  A
Mn503      Cl505   2.548   1_455  S
Mn504      Cl505   2.552       .  S
N508        N509   1.326       .  A
N508        N514   1.317       .  A
N508       Mn537   2.220       .  S
N509        C516   1.355       .  A
N510        N512   1.319       .  A
N510        N511   1.321       .  A
N510       Mn526   2.203   1_655  S
N511        C517   1.349       .  A
N512        N513   1.318       .  A
N512       Mn537   2.192       .  S
N513        C517   1.348       .  A
N514        N515   1.316       .  A
N514       Mn526   2.193   1_655  S
N515        C516   1.349       .  A
N518        N524   1.314   1_556  A
N518        N519   1.320       .  A
N518       Mn548   2.217       .  S
N519        C527   1.356   1_556  A
N520        N521   1.328       .  A
N520        N522   1.316   1_554  A
N520       Mn526   2.243       .  S
N521        C528   1.360   1_554  A
N522        N523   1.332       .  A
N522       Mn548   2.254       .  S
N523        C528   1.362       .  A
N524        N525   1.328       .  A
N524       Mn526   2.210       .  S
N525        C527   1.354       .  A
Mn526      Cl550   2.550   1_454  S
N529        N530   1.331       .  A
N529        N535   1.315   1_554  A
N529       Mn537   2.244       .  S
N530        C538   1.360   1_554  A
N531        N533   1.315   1_556  A
N531        N532   1.332       .  A
N531       Mn549   2.236       .  S
N532        C539   1.359       .  A
N533        N534   1.320       .  A
N533       Mn537   2.216       .  S
N534        C539   1.355   1_554  A
N535        N536   1.330       .  A
N535       Mn549   2.251       .  S
N536        C538   1.363       .  A
Mn537      Cl550   2.555   1_554  S
N540        N541   1.317   1_655  A
N540        N546   1.318       .  A
N540       Mn548   2.195   1_655  S
N541        C551   1.350   1_455  A
N542        N543   1.316       .  A
N542        N544   1.320       .  A
N542       Mn549   2.211       .  S
N543        C552   1.352       .  A
N544        N545   1.327   1_655  A
N544       Mn548   2.222   1_655  S
N545        C552   1.354   1_455  A
N546        N547   1.318       .  A
N546       Mn549   2.187       .  S
N547        C551   1.346       .  A
Mn548      Cl550   2.554   1_455  S
Mn549      Cl550   2.551       .  S
N553        N554   1.319       .  A
N553        N559   1.319   1_556  A
N553       Mn582   2.208       .  S
N554        C561   1.350   1_556  A
N555        N557   1.319   1_554  A
N555        N556   1.325       .  A
N555       Mn571   2.216       .  S
N556        C562   1.353       .  A
N557        N558   1.316       .  A
N557       Mn582   2.200       .  S
N558        C562   1.350   1_556  A
N559        N560   1.316       .  A
N559       Mn571   2.170       .  S
N560        C561   1.343       .  A
N563        N569   1.314       .  A
N563        N564   1.331       .  A
N563       Mn593   2.228       .  S
N564        C572   1.357       .  A
N565        N566   1.332       .  A
N565        N567   1.315       .  A
N565       Mn571   2.251       .  S
N566        C573   1.361       .  A
N567        N568   1.329       .  A
N567       Mn593   2.243       .  S
N568        C573   1.361       .  A
N569        N570   1.319       .  A
N569       Mn571   2.207       .  S
N570        C572   1.354       .  A
Mn571      Cl595   2.553   1_554  S
N574        N575   1.332       .  A
N574        N580   1.315       .  A
N574       Mn582   2.266       .  S
N575        C583   1.365       .  A
N576        N578   1.314       .  A
N576        N577   1.318       .  A
N576       Mn594   2.215       .  S
N577        C584   1.355       .  A
N578        N579   1.332       .  A
N578       Mn582   2.223       .  S
N579        C584   1.358       .  A
N580        N581   1.329       .  A
N580       Mn594   2.233       .  S
N581        C583   1.357       .  A
Mn582      Cl595   2.549       .  S
N585        N586   1.315       .  A
N585        N591   1.318   1_554  A
N585       Mn593   2.204   1_565  S
N586        C596   1.351   1_554  A
N587        N588   1.318       .  A
N587        N589   1.319   1_556  A
N587       Mn594   2.197   1_565  S
N588        C597   1.350       .  A
N589        N590   1.319       .  A
N589       Mn593   2.185   1_565  S
N590        C597   1.345   1_554  A
N591        N592   1.328       .  A
N591       Mn594   2.217   1_565  S
N592        C596   1.354       .  A
Mn593      Cl595   2.552   1_554  S
Mn594      Cl595   2.550       .  S
O598        C625   1.263       .  A
O598       Mn624   2.066       .  S
C599       C1070   1.459       .  S
C599        O632   1.269       .  A
C599        O629   1.258       .  A
O600       Mn607   2.179       .  S
O600       Mn618   2.094       .  S
O600       Mn622   2.172       .  S
O600       Mn624   2.120       .  S
O601        C611   1.269       .  A
O601       Mn635   2.096       .  S
O602        C625   1.263       .  A
O602       Mn618   2.062       .  S
O603        C630   1.267       .  A
O603       Mn622   2.193       .  S
O604       Mn635   1.965       .  S
O604       Mn624   1.980       .  S
O604        C620   1.221       .  S
C605        C959   1.500       .  S
C605        O608   1.269       .  A
C605        O631   1.217       .  A
O606       Mn626   2.086       .  S
O606       Mn607   2.178       .  S
O606       Mn640   2.087       .  S
O606       Mn622   2.175       .  S
Mn607       O636   2.195       .  S
Mn607       O612   2.193       .  S
Mn607       O639   2.198       .  S
Mn607       O613   2.187       .  S
O608       Mn622   2.189       .  S
O609        C611   1.269       .  A
O609       Mn616   2.084       .  S
C610       C1031   1.529       .  S
C610        O636   1.269       .  A
C610        O623   1.211       .  S
C611        C971   1.467       .  S
O612        C637   1.272       .  A
O613       Mn616   2.092       .  S
O613       Mn635   2.094       .  S
O613       Mn622   2.177       .  S
O614       Mn618   1.953       .  S
O614       Mn640   1.927       .  S
O614        C637   1.210       .  S
C615        C998   1.448       .  S
C615        O641   1.264       .  A
C615        O617   1.267       .  A
Mn616       O629   2.022       .  S
Mn616       O631   1.964       .  S
Mn616       O623   1.951       .  S
O617       Mn640   2.081       .  S
Mn618       O634   2.053       .  S
Mn618       O628   1.943       .  S
O619        C621   1.276       .  A
O619       Mn624   2.114       .  S
C620        C935   1.519       .  S
C620        O638   1.270       .  A
C621       C1010   1.486       .  S
C621        O634   1.262       .  A
Mn622       O638   2.167       .  S
O623       Mn626   1.954       .  S
Mn624       O642   1.929       .  S
C625        C947   1.443       .  S
Mn626       O633   2.067       .  S
Mn626       O641   2.055       .  S
Mn626       O631   1.961       .  S
C627       C1043   1.467       .  S
C627        O633   1.268       .  A
C627        O643   1.265       .  A
O628       Mn640   1.948       .  S
O628        C630   1.210       .  S
C630        C983   1.526       .  S
O632       Mn635   2.088       .  S
Mn635       O642   1.951       .  S
C637       C1022   1.521       .  S
O639        C644   1.269       .  A
Mn640       O643   2.061       .  S
O642        C644   1.210       .  S
C644       C1055   1.526       .  S
C645        N646   1.365       .  A
C645        N650   1.357       .  A
C645       C1274   1.475       .  S
N646        C647   1.356       .  A
C647        N648   1.350       .  A
C647        C862   1.470       .  S
N648        C649   1.353       .  A
C649        N650   1.356       .  A
C649       C1691   1.481       .  S
C651        N652   1.358       .  A
C651        N656   1.358       .  A
C651       C1286   1.492       .  S
N652        C653   1.361       .  A
C653        N654   1.375       .  A
C653       C1682   1.493       .  S
N654        C655   1.367       .  A
C655        N656   1.355       .  A
C655        C796   1.496       .  S
C657        N658   1.349       .  A
C657        N662   1.356       .  A
C657       C1538   1.490       .  S
N658        C659   1.350       .  A
C659        N660   1.369       .  A
C659        C762   1.487       .  S
N660        C661   1.377       .  A
C661        N662   1.360       .  A
C661       C1430   1.490       .  S
C663        N664   1.347       .  A
C663        N668   1.356       .  A
C663       C1418   1.480       .  S
N664        C665   1.346       .  A
C665        N666   1.360       .  A
C665        C874   1.462       .  S
N666        C667   1.366       .  A
C667        N668   1.360       .  A
C667       C1547   1.470       .  S
C669        N670   1.349       .  A
C669        N674   1.351       .  A
C669       C1127   1.474       .  S
N670        C671   1.349       .  A
C671        N672   1.361       .  A
C671        C995   1.453       .  S
N672        C673   1.356       .  A
C673        N674   1.348       .  A
C673        C873   1.455       .  S
C675        N676   1.375       .  A
C675        N680   1.370       .  A
C675        C986   1.521       .  S
N676        C677   1.369       .  A
C677        N678   1.367       .  A
C677        C797   1.515       .  S
N678        C679   1.371       .  A
C679        N680   1.368       .  A
C679       C1142   1.513       .  S
C681        N682   1.361       .  A
C681        N686   1.352       .  A
C681       C1838   1.459       .  S
N682        C683   1.358       .  A
C683        N684   1.347       .  A
C683        C807   1.455       .  S
N684        C685   1.351       .  A
C685        N686   1.350       .  A
C685       C1394   1.456       .  S
C687        N688   1.372       .  A
C687        N692   1.365       .  A
C687       C1403   1.509       .  S
N688        C689   1.371       .  A
C689        N690   1.374       .  A
C689        C851   1.524       .  S
N690        C691   1.376       .  A
C691        N692   1.365       .  A
C691       C1823   1.515       .  S
C693        N694   1.363       .  A
C693        N698   1.370       .  A
C693       C1658   1.499       .  S
N694        C695   1.363       .  A
C695        N696   1.375       .  A
C695       C1118   1.510       .  S
N696        C697   1.372       .  A
C697        N698   1.366       .  A
C697        C887   1.522       .  S
C699        N700   1.354       .  A
C699        N704   1.354       .  A
C699       C1670   1.475       .  S
N700        C701   1.354       .  A
C701        N702   1.350       .  A
C701       C1106   1.472       .  S
N702        C703   1.343       .  A
C703        N704   1.346       .  A
C703        C841   1.446       .  S
C705        N706   1.369       .  A
C705        N710   1.359       .  A
C705       C1523   1.468       .  S
N706        C707   1.364       .  A
C707        N708   1.347       .  A
C707        C783   1.469       .  S
N708        C709   1.349       .  A
C709        N710   1.352       .  A
C709       C1082   1.484       .  S
C711        N712   1.357       .  A
C711        N716   1.379       .  A
C711       C1094   1.486       .  S
N712        C713   1.353       .  A
C713        N714   1.345       .  A
C713       C1514   1.485       .  S
N714        C715   1.348       .  A
C715        N716   1.373       .  A
C715        C829   1.489       .  S
C717        N718   1.353       .  A
C717        N722   1.351       .  A
C717        C974   1.466       .  S
N718        C719   1.355       .  A
C719        N720   1.360       .  A
C719        C842   1.469       .  S
N720        C721   1.364       .  A
C721        N722   1.356       .  A
C721       C1250   1.464       .  S
C723        N724   1.355       .  A
C723        N728   1.355       .  A
C723       C1259   1.484       .  S
N724        C725   1.353       .  A
C725        N726   1.368       .  A
C725        C852   1.487       .  S
N726        C727   1.374       .  A
C727        N728   1.360       .  A
C727        C962   1.490       .  S
C729        N730   1.353       .  A
C729        N734   1.346       .  A
C729        C950   1.445       .  S
N730        C731   1.352       .  A
C731        N732   1.352       .  A
C731        C772   1.446       .  S
N732        C733   1.352       .  A
C733        N734   1.349       .  A
C733       C1367   1.465       .  S
C735        N736   1.366       .  A
C735        N740   1.367       .  A
C735        C938   1.511       .  S
N736        C737   1.367       .  A
C737        N738   1.376       .  A
C737       C1382   1.514       .  S
N738        C739   1.372       .  A
C739        N740   1.363       .  A
C739        C828   1.512       .  S
C741        N742   1.362       .  A
C741        N746   1.376       .  A
C741       C1802   1.492       .  S
N742        C743   1.358       .  A
C743        N744   1.353       .  A
C743       C1238   1.492       .  S
N744        C745   1.353       .  A
C745        N746   1.367       .  A
C745        C817   1.489       .  S
C747        N748   1.358       .  A
C747        N752   1.365       .  A
C747       C1223   1.465       .  S
N748        C749   1.354       .  A
C749        N750   1.353       .  A
C749       C1814   1.478       .  S
N750        C751   1.354       .  A
C751        N752   1.361       .  A
C751        C773   1.471       .  S
N753        N754   1.330       .  A
N753        N759   1.316       .  A
N753       Mn782   2.239   1_455  S
N754        C761   1.359       .  A
N755        N757   1.314       .  A
N755        N756   1.331       .  A
N755       Mn771   2.221       .  S
N756        C762   1.357       .  A
N757        N758   1.318       .  A
N757       Mn782   2.210       .  S
N758        C762   1.354       .  A
N759        N760   1.328       .  A
N759       Mn771   2.247   1_455  S
N760        C761   1.361       .  A
N763        N769   1.318       .  A
N763        N764   1.317       .  A
N763       Mn793   2.176       .  S
N764        C772   1.345       .  A
N765        N766   1.316       .  A
N765        N767   1.319       .  A
N765       Mn771   2.198   1_455  S
N766        C773   1.349       .  A
N767        N768   1.327       .  A
N767       Mn793   2.228   1_455  S
N768        C773   1.356       .  A
N769        N770   1.317       .  A
N769       Mn771   2.193       .  S
N770        C772   1.347       .  A
Mn771      Cl795   2.545       .  S
N774        N775   1.327       .  A
N774        N780   1.319       .  A
N774       Mn782   2.211       .  S
N775        C783   1.353       .  A
N776        N778   1.318       .  A
N776        N777   1.315       .  A
N776       Mn794   2.177   1_455  S
N777        C784   1.344       .  A
N778        N779   1.317       .  A
N778       Mn782   2.190   1_455  S
N779        C784   1.349       .  A
N780        N781   1.315       .  A
N780       Mn794   2.211       .  S
N781        C783   1.352       .  A
Mn782      Cl795   2.556       .  S
N785        N786   1.320       .  A
N785        N791   1.315       .  A
N785       Mn793   2.207   1_455  S
N786        C796   1.353       .  A
N787        N788   1.329       .  A
N787        N789   1.315       .  A
N787       Mn794   2.239       .  S
N788        C797   1.360       .  A
N789        N790   1.332       .  A
N789       Mn793   2.258       .  S
N790        C797   1.363       .  A
N791        N792   1.333       .  A
N791       Mn794   2.248   1_455  S
N792        C796   1.362       .  A
Mn793      Cl795   2.557       .  S
Mn794      Cl795   2.547       .  S
N798        N799   1.327       .  A
N798        N804   1.319       .  A
N798       Mn827   2.215   1_554  S
N799        C806   1.353       .  A
N800        N802   1.319       .  A
N800        N801   1.319       .  A
N800       Mn816   2.185   1_556  S
N801        C807   1.345       .  A
N802        N803   1.318       .  A
N802       Mn827   2.200       .  S
N803        C807   1.350       .  A
N804        N805   1.317       .  A
N804       Mn816   2.218       .  S
N805        C806   1.353       .  A
N808        N814   1.314       .  A
N808        N809   1.318       .  A
N808       Mn838   2.198       .  S
N809        C817   1.352       .  A
N810        N811   1.331       .  A
N810        N812   1.316       .  A
N810       Mn816   2.246       .  S
N811        C818   1.361       .  A
N812        N813   1.332       .  A
N812       Mn838   2.265   1_554  S
N813        C818   1.363       .  A
N814        N815   1.332       .  A
N814       Mn816   2.241   1_556  S
N815        C817   1.360       .  A
Mn816      Cl840   2.553   1_554  S
N819        N820   1.331       .  A
N819        N825   1.315       .  A
N819       Mn827   2.238       .  S
N820        C828   1.359       .  A
N821        N823   1.314       .  A
N821        N822   1.332       .  A
N821       Mn839   2.214   1_554  S
N822        C829   1.356       .  A
N823        N824   1.318       .  A
N823       Mn827   2.223   1_554  S
N824        C829   1.356       .  A
N825        N826   1.329       .  A
N825       Mn839   2.255       .  S
N826        C828   1.363       .  A
Mn827      Cl840   2.553       .  S
N830        N831   1.316       .  A
N830        N836   1.319       .  A
N830       Mn838   2.173   1_554  S
N831        C841   1.345       .  A
N832        N833   1.315       .  A
N832        N834   1.319       .  A
N832       Mn839   2.185       .  S
N833        C842   1.347       .  A
N834        N835   1.327       .  A
N834       Mn838   2.237       .  S
N835        C842   1.358       .  A
N836        N837   1.318       .  A
N836       Mn839   2.200   1_554  S
N837        C841   1.349       .  A
Mn838      Cl840   2.555       .  S
Mn839      Cl840   2.552       .  S
N843        N844   1.332       .  A
N843        N849   1.317       .  A
N843       Mn872   2.262       .  S
N844        C851   1.364       .  A
N845        N847   1.314       .  A
N845        N846   1.321   1_545  A
N845       Mn861   2.213       .  S
N846        C852   1.356       .  A
N847        N848   1.329   1_545  A
N847       Mn872   2.224       .  S
N848        C852   1.356       .  A
N849        N850   1.332       .  A
N849       Mn861   2.261       .  S
N850        C851   1.362       .  A
N853        N859   1.320       .  A
N853        N854   1.316   1_545  A
N853       Mn883   2.199       .  S
N854        C862   1.348       .  A
N855        N856   1.318       .  A
N855        N857   1.319       .  A
N855       Mn861   2.178       .  S
N856        C863   1.346       .  A
N857        N858   1.317       .  A
N857       Mn883   2.202       .  S
N858        C863   1.349       .  A
N859        N860   1.327   1_545  A
N859       Mn861   2.233       .  S
N860        C862   1.356       .  A
Mn861      Cl885   2.561       .  S
N864        N865   1.320   1_545  A
N864        N870   1.320       .  A
N864       Mn872   2.198       .  S
N865        C873   1.347       .  A
N866        N868   1.318       .  A
N866        N867   1.324       .  A
N866       Mn884   2.203       .  S
N867        C874   1.350       .  A
N868        N869   1.316       .  A
N868       Mn872   2.205       .  S
N869        C874   1.352       .  A
N870        N871   1.317   1_545  A
N870       Mn884   2.199       .  S
N871        C873   1.350       .  A
Mn872      Cl885   2.553       .  S
N875        N876   1.333       .  A
N875        N881   1.315       .  A
N875       Mn883   2.235       .  S
N876        C886   1.360       .  A
N877        N878   1.332   1_545  A
N877        N879   1.315       .  A
N877       Mn884   2.250       .  S
N878        C887   1.362       .  A
N879        N880   1.332   1_545  A
N879       Mn883   2.263       .  S
N880        C887   1.364       .  A
N881        N882   1.322       .  A
N881       Mn884   2.226       .  S
N882        C886   1.356       .  A
Mn883      Cl885   2.551       .  S
Mn884      Cl885   2.558       .  S
O888        C915   1.267       .  A
O888       Mn914   2.064       .  S
C889       C1778   1.460       .  S
C889        O922   1.263       .  A
C889        O919   1.273       .  A
O890       Mn897   2.177       .  S
O890       Mn908   2.099       .  S
O890       Mn912   2.190       .  S
O890       Mn914   2.101       .  S
O891        C901   1.267       .  A
O891       Mn925   2.079       .  S
O892        C915   1.262       .  A
O892       Mn908   2.061       .  S
O893        C920   1.267       .  A
O893       Mn912   2.168       .  S
O894       Mn925   1.942       .  S
O894       Mn914   1.943       .  S
O894        C910   1.210       .  S
C895       C1982   1.522       .  S
C895        O898   1.272       .  A
C895        O921   1.207       .  S
O896       Mn916   2.089       .  S
O896       Mn897   2.169       .  S
O896       Mn930   2.118       .  S
O896       Mn912   2.176       .  S
Mn897       O926   2.199       .  S
Mn897       O902   2.150       .  S
Mn897       O929   2.172       .  S
Mn897       O903   2.160       .  S
O898       Mn912   2.203       .  S
O899        C901   1.264       .  A
O899       Mn906   2.051       .  S
C900       C1754   1.528       .  S
C900        O926   1.269       .  A
C900        O913   1.210       .  S
C901       C2066   1.465       .  S
O902        C927   1.264       .  A
O903       Mn906   2.084       .  S
O903       Mn925   2.087       .  S
O903       Mn912   2.168       .  S
O904       Mn908   1.950       .  S
O904       Mn930   1.963       .  S
O904        C927   1.223       .  S
C905       C1958   1.488       .  S
C905        O931   1.274       .  A
C905        O907   1.266       .  A
Mn906       O919   2.102       .  S
Mn906       O921   1.936       .  S
Mn906       O913   1.955       .  S
O907       Mn930   2.075       .  S
Mn908       O924   2.083       .  S
Mn908       O918   1.952       .  S
O909        C911   1.270       .  A
O909       Mn914   2.088       .  S
C910       C2042   1.529       .  S
C910        O928   1.268       .  A
C911       C1610   1.467       .  S
C911        O924   1.270       .  A
Mn912       O928   2.199       .  S
O913       Mn916   1.961       .  S
Mn914       O932   1.947       .  S
C915       C2018   1.471       .  S
Mn916       O923   2.059       .  S
Mn916       O931   2.094       .  S
Mn916       O921   1.950       .  S
C917       C1898   1.440       .  S
C917        O923   1.262       .  A
C917        O933   1.262       .  A
O918       Mn930   1.934       .  S
O918        C920   1.221       .  S
C920       C1994   1.518       .  S
O922       Mn925   2.060       .  S
Mn925       O932   1.937       .  S
C927       C1922   1.515       .  S
O929        C934   1.266       .  A
Mn930       O933   2.060       .  S
O932        C934   1.212       .  S
C934       C1634   1.502       .  S
C935        C936   1.411       .  A
C935        C940   1.428       .  A
C936        C937   1.418       .  A
C936        H945   1.082       .  S
C937        C938   1.421       .  A
C937        S941   1.801       .  S
C938        C939   1.401       .  A
C939        C940   1.406       .  A
C939        H946   1.082       .  S
C940        S942   1.809       .  S
S941        H944   1.406       .  S
S942        H943   1.406       .  S
C947        C948   1.396       .  A
C947        C952   1.410       .  A
C948        C949   1.390       .  A
C948        H957   1.083       .  S
C949        C950   1.409       .  A
C949        S953   1.809       .  S
C950        C951   1.396       .  A
C951        C952   1.390       .  A
C951        H958   1.084       .  S
C952        S954   1.800       .  S
S953        H956   1.407       .  S
S954        H955   1.398       .  S
C959        C960   1.421       .  A
C959        C964   1.402       .  A
C960        C961   1.394       .  A
C960        H969   1.077       .  S
C961        C962   1.406       .  A
C961        S965   1.804       .  S
C962        C963   1.415       .  A
C963        C964   1.416       .  A
C963        H970   1.082       .  S
C964        S966   1.801       .  S
S965        H968   1.407       .  S
S966        H967   1.406       .  S
C971        C972   1.401       .  A
C971        C976   1.415       .  A
C972        C973   1.392       .  A
C972        H981   1.084       .  S
C973        C974   1.411       .  A
C973        S977   1.805       .  S
C974        C975   1.401       .  A
C975        C976   1.401       .  A
C975        H982   1.084       .  S
C976        S978   1.802       .  S
S977        H980   1.407       .  S
S978        H979   1.396       .  S
C983        C984   1.410       .  A
C983        C988   1.431       .  A
C984        C985   1.425       .  A
C984        H993   1.083       .  S
C985        C986   1.424       .  A
C985        S989   1.802       .  S
C986        C987   1.401       .  A
C987        C988   1.409       .  A
C987        H994   1.083       .  S
C988        S990   1.807       .  S
S989        H992   1.407       .  S
S990        H991   1.407       .  S
C995        C996   1.398       .  A
C995       C1000   1.413       .  A
C996        C997   1.384       .  A
C996       H1005   1.085       .  S
C997        C998   1.407       .  A
C997       S1001   1.803       .  S
C998        C999   1.399       .  A
C999       C1000   1.397       .  A
C999       H1006   1.084       .  S
C1000      S1002   1.803       .  S
S1001      H1004   1.406       .  S
S1002      H1003   1.407       .  S
C1007      C1008   1.401       .  A
C1007      C1012   1.410       .  A
C1008      C1009   1.396       .  A
C1008      H1017   1.083       .  S
C1009      C1010   1.423       .  A
C1009      S1013   1.803       .  S
C1010      C1011   1.405       .  A
C1011      C1012   1.392       .  A
C1011      H1018   1.080       .  S
C1012      S1014   1.799       .  S
S1013      H1016   1.407       .  S
S1014      H1015   1.408       .  S
C1019      C1020   1.390       .  A
C1019      C1024   1.422       .  A
C1020      C1021   1.402       .  A
C1020      H1029   1.082       .  S
C1021      C1022   1.439       .  A
C1021      S1025   1.811       .  S
C1022      C1023   1.408       .  A
C1023      C1024   1.418       .  A
C1023      H1030   1.083       .  S
C1024      S1026   1.801       .  S
S1025      H1028   1.406       .  S
S1026      H1027   1.406       .  S
C1031      C1032   1.411       .  A
C1031      C1036   1.436       .  A
C1032      C1033   1.421       .  A
C1032      H1041   1.084       .  S
C1033      C1034   1.421       .  A
C1033      S1037   1.801       .  S
C1034      C1035   1.398       .  A
C1035      C1036   1.413       .  A
C1035      H1042   1.083       .  S
C1036      S1038   1.814       .  S
S1037      H1040   1.406   1_565  S
S1038      H1039   1.406       .  S
C1043      C1044   1.403       .  A
C1043      C1048   1.408       .  A
C1044      C1045   1.381       .  A
C1044      H1053   1.082       .  S
C1045      C1046   1.415       .  A
C1045      S1049   1.806       .  S
C1046      C1047   1.410       .  A
C1047      C1048   1.397       .  A
C1047      H1054   1.084   1_565  S
C1048      S1050   1.801       .  S
S1049      H1052   1.402       .  S
S1050      H1051   1.406       .  S
C1055      C1056   1.412       .  A
C1055      C1060   1.435       .  A
C1056      C1057   1.422       .  A
C1056      H1065   1.083       .  S
C1057      C1058   1.421       .  A
C1057      S1061   1.801       .  S
C1058      C1059   1.396       .  A
C1059      C1060   1.406       .  A
C1059      H1066   1.083       .  S
C1060      S1062   1.811       .  S
S1061      H1064   1.406       .  S
S1062      H1063   1.406       .  S
C1067      C1068   1.401       .  A
C1067      C1072   1.412       .  A
C1068      C1069   1.379       .  A
C1068      H1077   1.083       .  S
C1069      C1070   1.414       .  A
C1069      S1073   1.809       .  S
C1070      C1071   1.403       .  A
C1071      C1072   1.398       .  A
C1071      H1078   1.084       .  S
C1072      S1074   1.803       .  S
S1073      H1076   1.406       .  S
S1074      H1075   1.408       .  S
C1079      C1080   1.406       .  A
C1079      C1084   1.415       .  A
C1080      C1081   1.402       .  A
C1080      H1089   1.084       .  S
C1081      C1082   1.416       .  A
C1081      S1085   1.802       .  S
C1082      C1083   1.406       .  A
C1083      C1084   1.388       .  A
C1083      H1090   1.081       .  S
C1084      S1086   1.813       .  S
S1085      H1088   1.408       .  S
S1086      H1087   1.407       .  S
C1091      C1092   1.408       .  A
C1091      C1096   1.422       .  A
C1092      C1093   1.416       .  A
C1092      H1101   1.084       .  S
C1093      C1094   1.419       .  A
C1093      S1097   1.802       .  S
C1094      C1095   1.398       .  A
C1095      C1096   1.401       .  A
C1095      H1102   1.083       .  S
C1096      S1098   1.811       .  S
S1097      H1100   1.405       .  S
S1098      H1099   1.406       .  S
C1103      C1104   1.404       .  A
C1103      C1108   1.405       .  A
C1104      C1105   1.381       .  A
C1104      H1113   1.082       .  S
C1105      C1106   1.417       .  A
C1105      S1109   1.817       .  S
C1106      C1107   1.413       .  A
C1107      C1108   1.394       .  A
C1107      H1114   1.084       .  S
C1108      S1110   1.801       .  S
S1109      H1112   1.406       .  S
S1110      H1111   1.407       .  S
C1115      C1116   1.411       .  A
C1115      C1120   1.429       .  A
C1116      C1117   1.423       .  A
C1116      H1125   1.084       .  S
C1117      C1118   1.423       .  A
C1117      S1121   1.803       .  S
C1118      C1119   1.399       .  A
C1119      C1120   1.411       .  A
C1119      H1126   1.083       .  S
C1120      S1122   1.809       .  S
S1121      H1124   1.404       .  S
S1122      H1123   1.407       .  S
C1127      C1128   1.409       .  A
C1127      C1132   1.409       .  A
C1128      C1129   1.394       .  A
C1128      H1137   1.083       .  S
C1129      C1130   1.412       .  A
C1129      S1133   1.797       .  S
C1130      C1131   1.408       .  A
C1131      C1132   1.382       .  A
C1131      H1138   1.083       .  S
C1132      S1134   1.800       .  S
S1133      H1136   1.406       .  S
S1134      H1135   1.408       .  S
C1139      C1140   1.412       .  A
C1139      C1144   1.433       .  A
C1140      C1141   1.422       .  A
C1140      H1149   1.083       .  S
C1141      C1142   1.422       .  A
C1141      S1145   1.800       .  S
C1142      C1143   1.399       .  A
C1143      C1144   1.409       .  A
C1143      H1150   1.082       .  S
C1144      S1146   1.810       .  S
S1145      H1148   1.406       .  S
S1146      H1147   1.406       .  S
C1151      C1152   1.401       .  A
C1151      C1156   1.405       .  A
C1152      C1153   1.392       .  A
C1152      H1161   1.083       .  S
C1153      C1154   1.414       .  A
C1153      S1157   1.812       .  S
C1154      C1155   1.408       .  A
C1155      C1156   1.397       .  A
C1155      H1162   1.083       .  S
C1156      S1158   1.799       .  S
S1157      H1160   1.407       .  S
S1158      H1159   1.405       .  S
C1163      C1164   1.411       .  A
C1163      C1168   1.430       .  A
C1164      C1165   1.422       .  A
C1164      H1173   1.083       .  S
C1165      C1166   1.421       .  A
C1165      S1169   1.804       .  S
C1166      C1167   1.398       .  A
C1167      C1168   1.409       .  A
C1167      H1174   1.083       .  S
C1168      S1170   1.811       .  S
S1169      H1172   1.403       .  S
S1170      H1171   1.406       .  S
C1175      C1176   1.395       .  A
C1175      C1180   1.417       .  A
C1176      C1177   1.398       .  A
C1176      H1185   1.083       .  S
C1177      C1178   1.424       .  A
C1177      S1181   1.811       .  S
C1178      C1179   1.407       .  A
C1179      C1180   1.415       .  A
C1179      H1186   1.081       .  S
C1180      S1182   1.802       .  S
S1181      H1184   1.407       .  S
S1182      H1183   1.405       .  S
C1187      C1188   1.398       .  A
C1187      C1192   1.414       .  A
C1188      C1189   1.388       .  A
C1188      H1197   1.085       .  S
C1189      C1190   1.414   1_565  A
C1189      S1193   1.806   1_565  S
C1190      C1191   1.402   1_545  A
C1191      C1192   1.400       .  A
C1191      H1198   1.084   1_565  S
C1192      S1194   1.802       .  S
S1193      H1196   1.408       .  S
S1194      H1195   1.404       .  S
C1199      C1200   1.403       .  A
C1199      C1204   1.422       .  A
C1200      C1201   1.405       .  A
C1200      H1209   1.082       .  S
C1201      C1202   1.427       .  A
C1201      S1205   1.808       .  S
C1202      C1203   1.411       .  A
C1203      C1204   1.420       .  A
C1203      H1210   1.083       .  S
C1204      S1206   1.797       .  S
S1205      H1208   1.407       .  S
S1206      H1207   1.407       .  S
C1211      C1212   1.399       .  A
C1211      C1216   1.409       .  A
C1212      C1213   1.401       .  A
C1212      H1221   1.083       .  S
C1213      C1214   1.413       .  A
C1213      S1217   1.806       .  S
C1214      C1215   1.400       .  A
C1215      C1216   1.381       .  A
C1215      H1222   1.085       .  S
C1216      S1218   1.808       .  S
S1217      H1220   1.407       .  S
S1218      H1219   1.402       .  S
C1223      C1224   1.394       .  A
C1223      C1228   1.412       .  A
C1224      C1225   1.392       .  A
C1224      H1233   1.084       .  S
C1225      C1226   1.421       .  A
C1225      S1229   1.812       .  S
C1226      C1227   1.407       .  A
C1227      C1228   1.406       .  A
C1227      H1234   1.084       .  S
C1228      S1230   1.803       .  S
S1229      H1232   1.407       .  S
S1230      H1231   1.405       .  S
C1235      C1236   1.410       .  A
C1235      C1240   1.418       .  A
C1236      C1237   1.396       .  A
C1236      H1245   1.081       .  S
C1237      C1238   1.416       .  A
C1237      S1241   1.811       .  S
C1238      C1239   1.408       .  A
C1239      C1240   1.406       .  A
C1239      H1246   1.083       .  S
C1240      S1242   1.798       .  S
S1241      H1244   1.406       .  S
S1242      H1243   1.407       .  S
C1247      C1248   1.399       .  A
C1247      C1252   1.428       .  A
C1248      C1249   1.404       .  A
C1248      H1257   1.089       .  S
C1249      C1250   1.410       .  A
C1249      S1253   1.800       .  S
C1250      C1251   1.393       .  A
C1251      C1252   1.392       .  A
C1251      H1258   1.084       .  S
C1252      S1254   1.815       .  S
S1253      H1256   1.405       .  S
S1254      H1255   1.407       .  S
C1259      C1260   1.406       .  A
C1259      C1264   1.408       .  A
C1260      C1261   1.411       .  A
C1260      H1269   1.083       .  S
C1261      C1262   1.421       .  A
C1261      S1265   1.805       .  S
C1262      C1263   1.407       .  A
C1263      C1264   1.389       .  A
C1263      H1270   1.080       .  S
C1264      S1266   1.799       .  S
S1265      H1268   1.407       .  S
S1266      H1267   1.408       .  S
C1271      C1272   1.409       .  A
C1271      C1276   1.413       .  A
C1272      C1273   1.388       .  A
C1272      H1281   1.083       .  S
C1273      C1274   1.408       .  A
C1273      S1277   1.805       .  S
C1274      C1275   1.409       .  A
C1275      C1276   1.406       .  A
C1275      H1282   1.084       .  S
C1276      S1278   1.801       .  S
S1277      H1280   1.407       .  S
S1278      H1279   1.405       .  S
C1283      C1284   1.404       .  A
C1283      C1288   1.413       .  A
C1284      C1285   1.407       .  A
C1284      H1293   1.082       .  S
C1285      C1286   1.420       .  A
C1285      S1289   1.800       .  S
C1286      C1287   1.405       .  A
C1287      C1288   1.392       .  A
C1287      H1294   1.083       .  S
C1288      S1290   1.807       .  S
S1289      H1292   1.407       .  S
S1290      H1291   1.407       .  S
C1295      C1296   1.406       .  A
C1295      C1300   1.419       .  A
C1296      C1297   1.407       .  A
C1296      H1305   1.083       .  S
C1297      C1298   1.412       .  A
C1297      S1301   1.802       .  S
C1298      C1299   1.397       .  A
C1299      C1300   1.396       .  A
C1299      H1306   1.083       .  S
C1300      S1302   1.811       .  S
S1301      H1304   1.405       .  S
S1302      H1303   1.407       .  S
C1307      C1308   1.410       .  A
C1307      C1312   1.423       .  A
C1308      C1309   1.404       .  A
C1308      H1317   1.083   1_455  S
C1309      C1310   1.413       .  A
C1309      S1313   1.800       .  S
C1310      C1311   1.402       .  A
C1311      C1312   1.392       .  A
C1311      H1318   1.082       .  S
C1312      S1314   1.812       .  S
S1313      H1316   1.408       .  S
S1314      H1315   1.407       .  S
C1319      C1320   1.405       .  A
C1319      C1324   1.413       .  A
C1320      C1321   1.393       .  A
C1320      H1329   1.081       .  S
C1321      C1322   1.421   1_565  A
C1321      S1325   1.813       .  S
C1322      C1323   1.410       .  A
C1323      C1324   1.403   1_545  A
C1323      H1330   1.084       .  S
C1324      S1326   1.801       .  S
S1325      H1328   1.406       .  S
S1326      H1327   1.408       .  S
C1331      C1332   1.407       .  A
C1331      C1336   1.421       .  A
C1332      C1333   1.407       .  A
C1332      H1341   1.083       .  S
C1333      C1334   1.412       .  A
C1333      S1337   1.802       .  S
C1334      C1335   1.396       .  A
C1335      C1336   1.399       .  A
C1335      H1342   1.084       .  S
C1336      S1338   1.812       .  S
S1337      H1340   1.406       .  S
S1338      H1339   1.406       .  S
C1343      C1344   1.398       .  A
C1343      C1348   1.413       .  A
C1344      C1345   1.396       .  A
C1344      H1353   1.084       .  S
C1345      C1346   1.418       .  A
C1345      S1349   1.811       .  S
C1346      C1347   1.407       .  A
C1347      C1348   1.409       .  A
C1347      H1354   1.083       .  S
C1348      S1350   1.802       .  S
S1349      H1352   1.406       .  S
S1350      H1351   1.404       .  S
C1355      C1356   1.402       .  A
C1355      C1360   1.420       .  A
C1356      C1357   1.392       .  A
C1356      H1365   1.082       .  S
C1357      C1358   1.424       .  A
C1357      S1361   1.817       .  S
C1358      C1359   1.406       .  A
C1359      C1360   1.405       .  A
C1359      H1366   1.082       .  S
C1360      S1362   1.810       .  S
S1361      H1364   1.406       .  S
S1362      H1363   1.407       .  S
C1367      C1368   1.409       .  A
C1367      C1372   1.412       .  A
C1368      C1369   1.396       .  A
C1368      H1377   1.084       .  S
C1369      C1370   1.406       .  A
C1369      S1373   1.797       .  S
C1370      C1371   1.404       .  A
C1371      C1372   1.381       .  A
C1371      H1378   1.085       .  S
C1372      S1374   1.804       .  S
S1373      H1376   1.407       .  S
S1374      H1375   1.406       .  S
C1379      C1380   1.417       .  A
C1379      C1384   1.421       .  A
C1380      C1381   1.408       .  A
C1380      H1389   1.084       .  S
C1381      C1382   1.413       .  A
C1381      S1385   1.803       .  S
C1382      C1383   1.414       .  A
C1383      C1384   1.422       .  A
C1383      H1390   1.083       .  S
C1384      S1386   1.797       .  S
S1385      H1388   1.407       .  S
S1386      H1387   1.407       .  S
C1391      C1392   1.401       .  A
C1391      C1396   1.404       .  A
C1392      C1393   1.396       .  A
C1392      H1401   1.084       .  S
C1393      C1394   1.411       .  A
C1393      S1397   1.803       .  S
C1394      C1395   1.404       .  A
C1395      C1396   1.380       .  A
C1395      H1402   1.084       .  S
C1396      S1398   1.809       .  S
S1397      H1400   1.406       .  S
S1398      H1399   1.407       .  S
C1403      C1404   1.400       .  A
C1403      C1408   1.422       .  A
C1404      C1405   1.412       .  A
C1404      H1413   1.083       .  S
C1405      C1406   1.427       .  A
C1405      S1409   1.809       .  S
C1406      C1407   1.411       .  A
C1407      C1408   1.422       .  A
C1407      H1414   1.083       .  S
C1408      S1410   1.805       .  S
S1409      H1412   1.406       .  S
S1410      H1411   1.403       .  S
C1415      C1416   1.405       .  A
C1415      C1420   1.418       .  A
C1416      C1417   1.392       .  A
C1416      H1425   1.082       .  S
C1417      C1418   1.416       .  A
C1417      S1421   1.812       .  S
C1418      C1419   1.405       .  A
C1419      C1420   1.398       .  A
C1419      H1426   1.083       .  S
C1420      S1422   1.800       .  S
S1421      H1424   1.406       .  S
S1422      H1423   1.405       .  S
C1427      C1428   1.419       .  A
C1427      C1432   1.416       .  A
C1428      C1429   1.394       .  A
C1428      H1437   1.083       .  S
C1429      C1430   1.404       .  A
C1429      S1433   1.804       .  S
C1430      C1431   1.415       .  A
C1431      C1432   1.416       .  A
C1431      H1438   1.084       .  S
C1432      S1434   1.798       .  S
S1433      H1436   1.407       .  S
S1434      H1435   1.403       .  S
C1439      C1440   1.400       .  A
C1439      C1444   1.404       .  A
C1440      C1441   1.394       .  A
C1440      H1449   1.085       .  S
C1441      C1442   1.410       .  A
C1441      S1445   1.803       .  S
C1442      C1443   1.401       .  A
C1443      C1444   1.381       .  A
C1443      H1450   1.085       .  S
C1444      S1446   1.807       .  S
S1445      H1448   1.406       .  S
S1446      H1447   1.407       .  S
C1451      C1452   1.398       .  A
C1451      C1456   1.420       .  A
C1452      C1453   1.406       .  A
C1452      H1461   1.083       .  S
C1453      C1454   1.427       .  A
C1453      S1457   1.811       .  S
C1454      C1455   1.410       .  A
C1455      C1456   1.417       .  A
C1455      H1462   1.083       .  S
C1456      S1458   1.806       .  S
S1457      H1460   1.406       .  S
S1458      H1459   1.403       .  S
C1463      C1464   1.402       .  A
C1463      C1468   1.410       .  A
C1464      C1465   1.393       .  A
C1464      H1473   1.085       .  S
C1465      C1466   1.409       .  A
C1465      S1469   1.802       .  S
C1466      C1467   1.401       .  A
C1467      C1468   1.385       .  A
C1467      H1474   1.085       .  S
C1468      S1470   1.804       .  S
S1469      H1472   1.397       .  S
S1470      H1471   1.408       .  S
C1475      C1476   1.413       .  A
C1475      C1480   1.413       .  A
C1476      C1477   1.423       .  A
C1476      H1485   1.083       .  S
C1477      C1478   1.423       .  A
C1477      S1481   1.798       .  S
C1478      C1479   1.417       .  A
C1479      C1480   1.408       .  A
C1479      H1486   1.083       .  S
C1480      S1482   1.804       .  S
S1481      H1484   1.401       .  S
S1482      H1483   1.406       .  S
C1487      C1488   1.419       .  A
C1487      C1492   1.408       .  A
C1488      C1489   1.416       .  A
C1488      H1497   1.083       .  S
C1489      C1490   1.413       .  A
C1489      S1493   1.799       .  S
C1490      C1491   1.416       .  A
C1491      C1492   1.399       .  A
C1491      H1498   1.080       .  S
C1492      S1494   1.800       .  S
S1493      H1496   1.404       .  S
S1494      H1495   1.408       .  S
C1499      C1500   1.407       .  A
C1499      C1504   1.417       .  A
C1500      C1501   1.391       .  A
C1500      H1509   1.083       .  S
C1501      C1502   1.409       .  A
C1501      S1505   1.802       .  S
C1502      C1503   1.405       .  A
C1503      C1504   1.399       .  A
C1503      H1510   1.084       .  S
C1504      S1506   1.802       .  S
S1505      H1508   1.407       .  S
S1506      H1507   1.405       .  S
C1511      C1512   1.404       .  A
C1511      C1516   1.412       .  A
C1512      C1513   1.389       .  A
C1512      H1521   1.082       .  S
C1513      C1514   1.420       .  A
C1513      S1517   1.814       .  S
C1514      C1515   1.410       .  A
C1515      C1516   1.399       .  A
C1515      H1522   1.083       .  S
C1516      S1518   1.800       .  S
S1517      H1520   1.407       .  S
S1518      H1519   1.407       .  S
C1523      C1524   1.395       .  A
C1523      C1528   1.408       .  A
C1524      C1525   1.393       .  A
C1524      H1533   1.082       .  S
C1525      C1526   1.420       .  A
C1525      S1529   1.813       .  S
C1526      C1527   1.408       .  A
C1527      C1528   1.411       .  A
C1527      H1534   1.083       .  S
C1528      S1530   1.804       .  S
S1529      H1532   1.406       .  S
S1530      H1531   1.407       .  S
C1535      C1536   1.405       .  A
C1535      C1540   1.416       .  A
C1536      C1537   1.390       .  A
C1536      H1545   1.081       .  S
C1537      C1538   1.419       .  A
C1537      S1541   1.813       .  S
C1538      C1539   1.410       .  A
C1539      C1540   1.407       .  A
C1539      H1546   1.083       .  S
C1540      S1542   1.810       .  S
S1541      H1544   1.407       .  S
S1542      H1543   1.407       .  S
C1547      C1548   1.404       .  A
C1547      C1552   1.405       .  A
C1548      C1549   1.405       .  A
C1548      H1557   1.083       .  S
C1549      C1550   1.417       .  A
C1549      S1553   1.799       .  S
C1550      C1551   1.411       .  A
C1551      C1552   1.391       .  A
C1551      H1558   1.084       .  S
C1552      S1554   1.801       .  S
S1553      H1556   1.408       .  S
S1554      H1555   1.406       .  S
C1559      C1560   1.404       .  A
C1559      C1564   1.419       .  A
C1560      C1561   1.392       .  A
C1560      H1569   1.081       .  S
C1561      C1562   1.413       .  A
C1561      S1565   1.815       .  S
C1562      C1563   1.403       .  A
C1563      C1564   1.405       .  A
C1563      H1570   1.084       .  S
C1564      S1566   1.801       .  S
S1565      H1568   1.406       .  S
S1566      H1567   1.407       .  S
C1571      C1572   1.407       .  A
C1571      C1576   1.411       .  A
C1572      C1573   1.386       .  A
C1572      H1581   1.082       .  S
C1573      C1574   1.408       .  A
C1573      S1577   1.802       .  S
C1574      C1575   1.410       .  A
C1575      C1576   1.406       .  A
C1575      H1582   1.083       .  S
C1576      S1578   1.798       .  S
S1577      H1580   1.408       .  S
S1578      H1579   1.407       .  S
C1583      C1584   1.403       .  A
C1583      C1588   1.415       .  A
C1584      C1585   1.405       .  A
C1584      H1593   1.083       .  S
C1585      C1586   1.421       .  A
C1585      S1589   1.800       .  S
C1586      C1587   1.406       .  A
C1587      C1588   1.391       .  A
C1587      H1594   1.084       .  S
C1588      S1590   1.807       .  S
S1589      H1592   1.407       .  S
S1590      H1591   1.407       .  S
C1595      C1596   1.407       .  A
C1595      C1600   1.419       .  A
C1596      C1597   1.403       .  A
C1596      H1605   1.084       .  S
C1597      C1598   1.410       .  A
C1597      S1601   1.802       .  S
C1598      C1599   1.394       .  A
C1599      C1600   1.392       .  A
C1599      H1606   1.084       .  S
C1600      S1602   1.813       .  S
S1601      H1604   1.406       .  S
S1602      H1603   1.407       .  S
C1607      C1608   1.402       .  A
C1607      C1612   1.411       .  A
C1608      C1609   1.393       .  A
C1608      H1617   1.082       .  S
C1609      C1610   1.409       .  A
C1609      S1613   1.811       .  S
C1610      C1611   1.403       .  A
C1611      C1612   1.406       .  A
C1611      H1618   1.081       .  S
C1612      S1614   1.805       .  S
S1613      H1616   1.406       .  S
S1614      H1615   1.407       .  S
C1619      C1620   1.396       .  A
C1619      C1624   1.410       .  A
C1620      C1621   1.394       .  A
C1620      H1629   1.085       .  S
C1621      C1622   1.419       .  A
C1621      S1625   1.812       .  S
C1622      C1623   1.407       .  A
C1623      C1624   1.405       .  A
C1623      H1630   1.083       .  S
C1624      S1626   1.803       .  S
S1625      H1628   1.407       .  S
S1626      H1627   1.404       .  S
C1631      C1632   1.415       .  A
C1631      C1636   1.406       .  A
C1632      C1633   1.414       .  A
C1632      H1641   1.084       .  S
C1633      C1634   1.411       .  A
C1633      S1637   1.797       .  S
C1634      C1635   1.414       .  A
C1635      C1636   1.393       .  A
C1635      H1642   1.081       .  S
C1636      S1638   1.803       .  S
S1637      H1640   1.407       .  S
S1638      H1639   1.408       .  S
C1643      C1644   1.399       .  A
C1643      C1648   1.411       .  A
C1644      C1645   1.387       .  A
C1644      H1653   1.085       .  S
C1645      C1646   1.416       .  A
C1645      S1649   1.805       .  S
C1646      C1647   1.408       .  A
C1647      C1648   1.403       .  A
C1647      H1654   1.084       .  S
C1648      S1650   1.803       .  S
S1649      H1652   1.408       .  S
S1650      H1651   1.406       .  S
C1655      C1656   1.415       .  A
C1655      C1660   1.421       .  A
C1656      C1657   1.401       .  A
C1656      H1665   1.083       .  S
C1657      C1658   1.409       .  A
C1657      S1661   1.804       .  S
C1658      C1659   1.411       .  A
C1659      C1660   1.419       .  A
C1659      H1666   1.084       .  S
C1660      S1662   1.798       .  S
S1661      H1664   1.406       .  S
S1662      H1663   1.406       .  S
C1667      C1668   1.406       .  A
C1667      C1672   1.413       .  A
C1668      C1669   1.381       .  A
C1668      H1677   1.083       .  S
C1669      C1670   1.411       .  A
C1669      S1673   1.802       .  S
C1670      C1671   1.409       .  A
C1671      C1672   1.395       .  A
C1671      H1678   1.083       .  S
C1672      S1674   1.801       .  S
S1673      H1676   1.407       .  S
S1674      H1675   1.408       .  S
C1679      C1680   1.408       .  A
C1679      C1684   1.436       .  A
C1680      C1681   1.416       .  A
C1680      H1689   1.083       .  S
C1681      C1682   1.420       .  A
C1681      S1685   1.801       .  S
C1682      C1683   1.391       .  A
C1683      C1684   1.401       .  A
C1683      H1690   1.083       .  S
C1684      S1686   1.809       .  S
S1685      H1688   1.406       .  S
S1686      H1687   1.408       .  S
C1691      C1692   1.406       .  A
C1691      C1696   1.413       .  A
C1692      C1693   1.398       .  A
C1692      H1701   1.083       .  S
C1693      C1694   1.417       .  A
C1693      S1697   1.800       .  S
C1694      C1695   1.406       .  A
C1695      C1696   1.388       .  A
C1695      H1702   1.084       .  S
C1696      S1698   1.800       .  S
S1697      H1700   1.407       .  S
S1698      H1699   1.408       .  S
C1703      C1704   1.411       .  A
C1703      C1708   1.431       .  A
C1704      C1705   1.426       .  A
C1704      H1713   1.082       .  S
C1705      C1706   1.421       .  A
C1705      S1709   1.802       .  S
C1706      C1707   1.399       .  A
C1707      C1708   1.407       .  A
C1707      H1714   1.082       .  S
C1708      S1710   1.807       .  S
S1709      H1712   1.407       .  S
S1710      H1711   1.407       .  S
C1715      C1716   1.398       .  A
C1715      C1720   1.414       .  A
C1716      C1717   1.387       .  A
C1716      H1725   1.083       .  S
C1717      C1718   1.410       .  A
C1717      S1721   1.811       .  S
C1718      C1719   1.399       .  A
C1719      C1720   1.398       .  A
C1719      H1726   1.084       .  S
C1720      S1722   1.803       .  S
S1721      H1724   1.406       .  S
S1722      H1723   1.406       .  S
C1727      C1728   1.420       .  A
C1727      C1732   1.413       .  A
C1728      C1729   1.393       .  A
C1728      H1737   1.084       .  S
C1729      C1730   1.404       .  A
C1729      S1733   1.804       .  S
C1730      C1731   1.414       .  A
C1731      C1732   1.414       .  A
C1731      H1738   1.083       .  S
C1732      S1734   1.796       .  S
S1733      H1736   1.407       .  S
S1734      H1735   1.404       .  S
C1739      C1740   1.404       .  A
C1739      C1744   1.416       .  A
C1740      C1741   1.400       .  A
C1740      H1749   1.083       .  S
C1741      C1742   1.411       .  A
C1741      S1745   1.799       .  S
C1742      C1743   1.399       .  A
C1743      C1744   1.384       .  A
C1743      H1750   1.084       .  S
C1744      S1746   1.806       .  S
S1745      H1748   1.406       .  S
S1746      H1747   1.407       .  S
C1751      C1752   1.401       .  A
C1751      C1756   1.427       .  A
C1752      C1753   1.411       .  A
C1752      H1761   1.082       .  S
C1753      C1754   1.433       .  A
C1753      S1757   1.807       .  S
C1754      C1755   1.410       .  A
C1755      C1756   1.422       .  A
C1755      H1762   1.083       .  S
C1756      S1758   1.800       .  S
S1757      H1760   1.407       .  S
S1758      H1759   1.407       .  S
C1763      C1764   1.412       .  A
C1763      C1768   1.415       .  A
C1764      C1765   1.419       .  A
C1764      H1773   1.084   1_565  S
C1765      C1766   1.422       .  A
C1765      S1769   1.799       .  S
C1766      C1767   1.414       .  A
C1767      C1768   1.405       .  A
C1767      H1774   1.083       .  S
C1768      S1770   1.803       .  S
S1769      H1772   1.399       .  S
S1770      H1771   1.407   1_565  S
C1775      C1776   1.398       .  A
C1775      C1780   1.415       .  A
C1776      C1777   1.388       .  A
C1776      H1785   1.085       .  S
C1777      C1778   1.413       .  A
C1777      S1781   1.804       .  S
C1778      C1779   1.401       .  A
C1779      C1780   1.401       .  A
C1779      H1786   1.084       .  S
C1780      S1782   1.802       .  S
S1781      H1784   1.405       .  S
S1782      H1783   1.406       .  S
C1787      C1788   1.403       .  A
C1787      C1792   1.409       .  A
C1788      C1789   1.382       .  A
C1788      H1797   1.081       .  S
C1789      C1790   1.405       .  A
C1789      S1793   1.808       .  S
C1790      C1791   1.401       .  A
C1791      C1792   1.396       .  A
C1791      H1798   1.064       .  S
C1792      S1794   1.803   1_565  S
S1793      H1796   1.407       .  S
S1794      H1795   1.406       .  S
C1799      C1800   1.399       .  A
C1799      C1804   1.440       .  A
C1800      C1801   1.413       .  A
C1800      H1809   1.090       .  S
C1801      C1802   1.422       .  A
C1801      S1805   1.800       .  S
C1802      C1803   1.389       .  A
C1803      C1804   1.396       .  A
C1803      H1810   1.084       .  S
C1804      S1806   1.810       .  S
S1805      H1808   1.407       .  S
S1806      H1807   1.408       .  S
C1811      C1812   1.404       .  A
C1811      C1816   1.416       .  A
C1812      C1813   1.393       .  A
C1812      H1821   1.082       .  S
C1813      C1814   1.410       .  A
C1813      S1817   1.802       .  S
C1814      C1815   1.406       .  A
C1815      C1816   1.402       .  A
C1815      H1822   1.084       .  S
C1816      S1818   1.803       .  S
S1817      H1820   1.407       .  S
S1818      H1819   1.408       .  S
C1823      C1824   1.416       .  A
C1823      C1828   1.411       .  A
C1824      C1825   1.427       .  A
C1824      H1833   1.083       .  S
C1825      C1826   1.423       .  A
C1825      S1829   1.800       .  S
C1826      C1827   1.416       .  A
C1827      C1828   1.407       .  A
C1827      H1834   1.079       .  S
C1828      S1830   1.804       .  S
S1829      H1832   1.404       .  S
S1830      H1831   1.405       .  S
C1835      C1836   1.401       .  A
C1835      C1840   1.410       .  A
C1836      C1837   1.401       .  A
C1836      H1845   1.085       .  S
C1837      C1838   1.412       .  A
C1837      S1841   1.802       .  S
C1838      C1839   1.398       .  A
C1839      C1840   1.388       .  A
C1839      H1846   1.085       .  S
C1840      S1842   1.804       .  S
S1841      H1844   1.407       .  S
S1842      H1843   1.406       .  S
C1847      C1848   1.391       .  A
C1847      C1852   1.420       .  A
C1848      C1849   1.394       .  A
C1848      H1857   1.086       .  S
C1849      C1850   1.432       .  A
C1849      S1853   1.803       .  S
C1850      C1851   1.401       .  A
C1851      C1852   1.417       .  A
C1851      H1858   1.090       .  S
C1852      S1854   1.800       .  S
S1853      H1856   1.402       .  S
S1854      H1855   1.406       .  S
C1859      C1860   1.403       .  A
C1859      C1864   1.419       .  A
C1860      C1861   1.394       .  A
C1860      H1869   1.080       .  S
C1861      C1862   1.419       .  A
C1861      S1865   1.810       .  S
C1862      C1863   1.406       .  A
C1863      C1864   1.398       .  A
C1863      H1870   1.084       .  S
C1864      S1866   1.801       .  S
S1865      H1868   1.407       .  S
S1866      H1867   1.407       .  S
C1871      C1872   1.397       .  A
C1871      C1876   1.422       .  A
C1872      C1873   1.408       .  A
C1872      H1881   1.083       .  S
C1873      C1874   1.434       .  A
C1873      S1877   1.808       .  S
C1874      C1875   1.414       .  A
C1875      C1876   1.425       .  A
C1875      H1882   1.084       .  S
C1876      S1878   1.801       .  S
S1877      H1880   1.407       .  S
S1878      H1879   1.406       .  S
C1883      C1884   1.408       .  A
C1883      C1888   1.411       .  A
C1884      C1885   1.381       .  A
C1884      H1893   1.083       .  S
C1885      C1886   1.411       .  A
C1885      S1889   1.801       .  S
C1886      C1887   1.410       .  A
C1887      C1888   1.396       .  A
C1887      H1894   1.084       .  S
C1888      S1890   1.797       .  S
S1889      H1892   1.408       .  S
S1890      H1891   1.406       .  S
C1895      C1896   1.401       .  A
C1895      C1900   1.411       .  A
C1896      C1897   1.392       .  A
C1896      H1905   1.085       .  S
C1897      C1898   1.407       .  A
C1897      S1901   1.801       .  S
C1898      C1899   1.396       .  A
C1899      C1900   1.383       .  A
C1899      H1906   1.085       .  S
C1900      S1902   1.804       .  S
S1901      H1904   1.404       .  S
S1902      H1903   1.407       .  S
C1907      C1908   1.412       .  A
C1907      C1912   1.413       .  A
C1908      C1909   1.393       .  A
C1908      H1917   1.084       .  S
C1909      C1910   1.406       .  A
C1909      S1913   1.800       .  S
C1910      C1911   1.408       .  A
C1911      C1912   1.382       .  A
C1911      H1918   1.082       .  S
C1912      S1914   1.812       .  S
S1913      H1916   1.406       .  S
S1914      H1915   1.408       .  S
C1919      C1920   1.409       .  A
C1919      C1924   1.411       .  A
C1920      C1921   1.418       .  A
C1920      H1929   1.085       .  S
C1921      C1922   1.423       .  A
C1921      S1925   1.800       .  S
C1922      C1923   1.413       .  A
C1923      C1924   1.401       .  A
C1923      H1930   1.083       .  S
C1924      S1926   1.805       .  S
S1925      H1928   1.403       .  S
S1926      H1927   1.406       .  S
C1931      C1932   1.414       .  A
C1931      C1936   1.411       .  A
C1932      C1933   1.425       .  A
C1932      H1941   1.083       .  S
C1933      C1934   1.423       .  A
C1933      S1937   1.798       .  S
C1934      C1935   1.416       .  A
C1935      C1936   1.406       .  A
C1935      H1942   1.080       .  S
C1936      S1938   1.804       .  S
S1937      H1940   1.403       .  S
S1938      H1939   1.406       .  S
C1943      C1944   1.407       .  A
C1943      C1948   1.418       .  A
C1944      C1945   1.407       .  A
C1944      H1953   1.084       .  S
C1945      C1946   1.412       .  A
C1945      S1949   1.802       .  S
C1946      C1947   1.398       .  A
C1947      C1948   1.398       .  A
C1947      H1954   1.083       .  S
C1948      S1950   1.810       .  S
S1949      H1952   1.405       .  S
S1950      H1951   1.407       .  S
C1955      C1956   1.405       .  A
C1955      C1960   1.417       .  A
C1956      C1957   1.392       .  A
C1956      H1965   1.082       .  S
C1957      C1958   1.422       .  A
C1957      S1961   1.815       .  S
C1958      C1959   1.408       .  A
C1959      C1960   1.405       .  A
C1959      H1966   1.082       .  S
C1960      S1962   1.809       .  S
S1961      H1964   1.407       .  S
S1962      H1963   1.407       .  S
C1967      C1968   1.407       .  A
C1967      C1972   1.423       .  A
C1968      C1969   1.395       .  A
C1968      H1977   1.081       .  S
C1969      C1970   1.417       .  A
C1969      S1973   1.814       .  S
C1970      C1971   1.404       .  A
C1971      C1972   1.409       .  A
C1971      H1978   1.082       .  S
C1972      S1974   1.809       .  S
S1973      H1976   1.407       .  S
S1974      H1975   1.407       .  S
C1979      C1980   1.389       .  A
C1979      C1984   1.422       .  A
C1980      C1981   1.401       .  A
C1980      H1989   1.083       .  S
C1981      C1982   1.439       .  A
C1981      S1985   1.810       .  S
C1982      C1983   1.409       .  A
C1983      C1984   1.419       .  A
C1983      H1990   1.083       .  S
C1984      S1986   1.801       .  S
S1985      H1988   1.407       .  S
S1986      H1987   1.406       .  S
C1991      C1992   1.410       .  A
C1991      C1996   1.409       .  A
C1992      C1993   1.420       .  A
C1992      H2001   1.083       .  S
C1993      C1994   1.421       .  A
C1993      S1997   1.797       .  S
C1994      C1995   1.414       .  A
C1995      C1996   1.409       .  A
C1995      H2002   1.082       .  S
C1996      S1998   1.807       .  S
S1997      H2000   1.407       .  S
S1998      H1999   1.407       .  S
C2003      C2004   1.417       .  A
C2003      C2008   1.422       .  A
C2004      C2005   1.409       .  A
C2004      H2013   1.084       .  S
C2005      C2006   1.413       .  A
C2005      S2009   1.803       .  S
C2006      C2007   1.413       .  A
C2007      C2008   1.422       .  A
C2007      H2014   1.083       .  S
C2008      S2010   1.798       .  S
S2009      H2012   1.406       .  S
S2010      H2011   1.405       .  S
C2015      C2016   1.406       .  A
C2015      C2020   1.410       .  A
C2016      C2017   1.392       .  A
C2016      H2025   1.084       .  S
C2017      C2018   1.415       .  A
C2017      S2021   1.800       .  S
C2018      C2019   1.404       .  A
C2019      C2020   1.380       .  A
C2019      H2026   1.083       .  S
C2020      S2022   1.797       .  S
S2021      H2024   1.408       .  S
S2022      H2023   1.409       .  S
C2027      C2028   1.406       .  A
C2027      C2032   1.408       .  A
C2028      C2029   1.380       .  A
C2028      H2037   1.084       .  S
C2029      C2030   1.415       .  A
C2029      S2033   1.806       .  S
C2030      C2031   1.412       .  A
C2031      C2032   1.393       .  A
C2031      H2038   1.083       .  S
C2032      S2034   1.799       .  S
S2033      H2036   1.401       .  S
S2034      H2035   1.408       .  S
C2039      C2040   1.397       .  A
C2039      C2044   1.420       .  A
C2040      C2041   1.412       .  A
C2040      H2049   1.083       .  S
C2041      C2042   1.436       .  A
C2041      S2045   1.812       .  S
C2042      C2043   1.412       .  A
C2043      C2044   1.422       .  A
C2043      H2050   1.083       .  S
C2044      S2046   1.801       .  S
S2045      H2048   1.406       .  S
S2046      H2047   1.406       .  S
C2051      C2052   1.409       .  A
C2051      C2056   1.410       .  A
C2052      C2053   1.415       .  A
C2052      H2061   1.083       .  S
C2053      C2054   1.420       .  A
C2053      S2057   1.797       .  S
C2054      C2055   1.411       .  A
C2055      C2056   1.398       .  A
C2055      H2062   1.080       .  S
C2056      S2058   1.806       .  S
S2057      H2060   1.408       .  S
S2058      H2059   1.407       .  S
C2063      C2064   1.410       .  A
C2063      C2068   1.415       .  A
C2064      C2065   1.396       .  A
C2064      H2073   1.083       .  S
C2065      C2066   1.407       .  A
C2065      S2069   1.799       .  S
C2066      C2067   1.403       .  A
C2067      C2068   1.376       .  A
C2067      H2074   1.084       .  S
C2068      S2070   1.808       .  S
S2069      H2072   1.407       .  S
S2070      H2071   1.400       .  S
C2075      C2076   1.412       .  A
C2075      C2080   1.410       .  A
C2076      C2077   1.397       .  A
C2076      H2085   1.084       .  S
C2077      C2078   1.409       .  A
C2077      S2081   1.799       .  S
C2078      C2079   1.408       .  A
C2079      C2080   1.385       .  A
C2079      H2086   1.081       .  S
C2080      S2082   1.812       .  S
S2081      H2084   1.407       .  S
S2082      H2083   1.406       .  S
