geometry optimzed in LAMMPS
_audit_creation_date              2020-12-01 
_audit_creation_method            'lammps2cif' 
_symmetry_space_group_name_H-M    'P1' 
_symmetry_Int_Tables_number       1 
_symmetry_cell_setting            triclinic 
loop_ 
_symmetry_equiv_pos_as_xyz 
  x,y,z 
_cell_length_a                    44.90034455 
_cell_length_b                    45.23261181710287 
_cell_length_c                    32.18110744547071 
_cell_angle_alpha                 90.04160375505059 
_cell_angle_beta                  90.16024664511167 
_cell_angle_gamma                 89.94475391160104 
loop_ 
_atom_site_label 
_atom_site_type_symbol 
_atom_site_fract_x 
_atom_site_fract_y 
_atom_site_fract_z 
_atom_site_charge 
In1        In  0.11879822  0.27520125  0.98078146     1.36900
C2          C  0.08116560  0.29732638  0.92478213     0.77600
O3          O  0.13413823  0.24599753  0.92979644    -0.60800
O4          O  0.10971159  0.22631069  0.97917825    -0.51700
C5          C  0.17651906  0.28161216  0.99765768     0.70300
O6          O  0.16325877  0.29765240  0.97120725    -0.46600
C7          C  0.09440456  0.29570175  0.05047703     0.75000
O8          O  0.10563135  0.30982095  0.93347761    -0.58400
O9          O  0.09398061  0.26852719  0.04118121    -0.48500
O10         O  0.07617262  0.27409128  0.94515136    -0.54900
C11         C  0.12219303  0.22293055  0.94419551     0.85200
O12         O  0.15999942  0.26301443  0.01546072    -0.56700
O13         O  0.10677546  0.31189724  0.02377249    -0.60000
In14       In  0.04905507  0.10243289  0.78905703     1.36900
C15         C  0.08806319  0.12953013  0.83761420     0.77600
O16         O  0.07383758  0.09962832  0.72901544    -0.60800
O17         O  0.04298967  0.13471896  0.73573876    -0.51700
C18         C  0.04701246  0.04408097  0.78017708     0.70300
O19         O  0.07077407  0.05778558  0.78832051    -0.46600
C20         C  0.00066717  0.11797006  0.83170186     0.75000
O21         O  0.07999249  0.10325967  0.84436441    -0.58400
O22         O  0.00048587  0.11644078  0.79243327    -0.48500
O23         O  0.07825661  0.14057962  0.80437439    -0.54900
C24         C  0.06239032  0.12243313  0.71315225     0.85200
O25         O  0.02424708  0.06033162  0.77731451    -0.56700
O26         O  0.02499322  0.11065696  0.84821482    -0.60000
In27       In  0.86819662  0.19640549  0.98045005     1.36900
C28         C  0.90688356  0.16877233  0.93141956     0.77600
O29         O  0.85685751  0.22958338  0.93170941    -0.60800
O30         O  0.88150139  0.24463208  0.98375914    -0.51700
C31         C  0.81017853  0.18988423  0.99274032     0.70300
O32         O  0.82327997  0.17868321  0.96177019    -0.46600
C33         C  0.88846597  0.17342953  0.05118982     0.75000
O34         O  0.87923667  0.16383385  0.92885118    -0.58400
O35         O  0.89221371  0.20034270  0.04181422    -0.48500
O36         O  0.91396611  0.18813769  0.95771025    -0.54900
C37         C  0.86997461  0.25090045  0.94901513     0.85200
O38         O  0.82676966  0.20440688  0.01699770    -0.56700
O39         O  0.87390274  0.15875123  0.02465862    -0.60000
In40       In  0.93960279  0.36620795  0.78461369     1.36900
C41         C  0.90387734  0.34418823  0.84270143     0.77600
O42         O  0.90890249  0.36703111  0.72974853    -0.60800
O43         O  0.94791901  0.34078594  0.72559907    -0.51700
C44         C  0.94278641  0.42411036  0.77391737     0.70300
O45         O  0.92100350  0.41191550  0.79177985    -0.46600
C46         C  0.98991005  0.34475401  0.81672813     0.75000
O47         O  0.92274884  0.36399742  0.85053906    -0.58400
O48         O  0.97141576  0.32874984  0.79749569    -0.48500
O49         O  0.90152907  0.33786229  0.80476701    -0.54900
C50         C  0.92426561  0.34952000  0.70817254     0.85200
O51         O  0.96283623  0.40655493  0.76184668    -0.56700
O52         O  0.98353938  0.37188448  0.81669654    -0.60000
In53       In  0.12515650  0.68969885  0.53415448     1.36900
C54         C  0.10094034  0.65821383  0.59530810     0.77600
O55         O  0.13223840  0.73520265  0.56057574    -0.60800
O56         O  0.08847827  0.72275565  0.54339964    -0.51700
C57         C  0.18391182  0.68728023  0.52268296     0.70300
O58         O  0.17081262  0.67299559  0.55087743    -0.46600
C59         C  0.10324546  0.67003797  0.46253977     0.75000
O60         O  0.11836741  0.67945730  0.60213499    -0.58400
O61         O  0.09970592  0.69645676  0.47442887    -0.48500
O62         O  0.09828061  0.65157273  0.55753413    -0.54900
C63         C  0.10488735  0.74158323  0.56104923     0.85200
O64         O  0.16692952  0.70298324  0.50053669    -0.56700
O65         O  0.11868786  0.65433559  0.48678879    -0.60000
In66       In  0.03654926  0.86076864  0.73619131     1.36900
C67         C  0.06202841  0.82644633  0.67946058     0.77600
O68         O  0.07147572  0.85536626  0.78534023    -0.60800
O69         O  0.02909394  0.83629522  0.79633886    -0.51700
C70         C  0.03993137  0.91837632  0.74976157     0.70300
O71         O  0.05997082  0.90434262  0.73050656    -0.46600
C72         C  0.98463021  0.85779326  0.69753683     0.75000
O73         O  0.07008907  0.85290072  0.68507807    -0.58400
O74         O  0.98843584  0.84708538  0.73352659    -0.48500
O75         O  0.04286068  0.81723747  0.70482247    -0.54900
C76         C  0.05500639  0.84126982  0.80995997     0.85200
O77         O  0.01827204  0.90280972  0.76165095    -0.56700
O78         O  0.00667121  0.87186203  0.68354905    -0.60000
In79       In  0.86112601  0.77998409  0.54001409     1.36900
C80         C  0.89284779  0.81439256  0.59039396     0.77600
O81         O  0.85843671  0.74906762  0.59401820    -0.60800
O82         O  0.88354126  0.73471005  0.54244901    -0.51700
C83         C  0.80248016  0.78043278  0.52747633     0.70300
O84         O  0.81544731  0.79854627  0.55119555    -0.46600
C85         C  0.87889658  0.79961225  0.46612621     0.75000
O86         O  0.86634854  0.80723229  0.59834093    -0.58400
O87         O  0.88485361  0.77383914  0.47914323    -0.48500
O88         O  0.90230655  0.80533850  0.55588118    -0.54900
C89         C  0.87523940  0.72949200  0.57921406     0.85200
O90         O  0.81953075  0.76194215  0.51031428    -0.56700
O91         O  0.86349364  0.81497008  0.49089743    -0.60000
In92       In  0.95815358  0.60861549  0.74145225     1.36900
C93         C  0.92558789  0.64140613  0.68871140     0.77600
O94         O  0.92738488  0.60831459  0.79554647    -0.60800
O95         O  0.96605968  0.63528092  0.79988538    -0.51700
C96         C  0.95349978  0.55036436  0.75124412     0.70300
O97         O  0.93285713  0.56595726  0.73596703    -0.46600
C98         C  0.01116090  0.61780333  0.70736427     0.75000
O99         O  0.93575002  0.61640024  0.67909942    -0.58400
O100        O  0.00421783  0.62903828  0.74199387    -0.48500
O101        O  0.93103228  0.64895957  0.72552580    -0.54900
C102        C  0.94213451  0.62670446  0.81670873     0.85200
O103        O  0.97637381  0.56471295  0.76192217    -0.56700
O104        O  0.99168649  0.60094254  0.69221057    -0.60000
In105      In  0.44537748  0.86076003  0.29811137     1.36900
C106        C  0.41338216  0.84501432  0.36439771     0.77600
O107        O  0.40971391  0.84618896  0.25439662    -0.60800
O108        O  0.45410632  0.83640886  0.23739277    -0.51700
C109        C  0.44439143  0.91811812  0.27651680     0.70300
O110        O  0.42387828  0.90597049  0.29689391    -0.46600
C111        C  0.49549082  0.83762819  0.32876517     0.75000
O112        O  0.43606770  0.86125008  0.36731820    -0.58400
O113        O  0.47592397  0.82231768  0.31049979    -0.48500
O114        O  0.40585896  0.83915028  0.32761259    -0.54900
C115        C  0.42683765  0.83500368  0.22777035     0.85200
O116        O  0.46572055  0.90107624  0.26796551    -0.56700
O117        O  0.49033801  0.86507514  0.32843859    -0.60000
In118      In  0.61654091  0.76432013  0.49988949     1.36900
C119        C  0.58280279  0.78840038  0.44079071     0.77600
O120        O  0.63341305  0.72609038  0.46360720    -0.60800
O121        O  0.59834567  0.71796072  0.50597543    -0.51700
C122        C  0.67471202  0.77509088  0.50758108     0.70300
O123        O  0.66159816  0.77480467  0.47289725    -0.46600
C124        C  0.59246410  0.78491082  0.56940265     0.75000
O125        O  0.60576195  0.80110442  0.45492722    -0.58400
O126        O  0.60346149  0.75922827  0.56684578    -0.48500
O127        O  0.57733317  0.76370671  0.45714166    -0.54900
C128        C  0.61483692  0.70784308  0.47755610     0.85200
O129        O  0.65778756  0.77109870  0.53817225    -0.56700
O130        O  0.59314878  0.79960782  0.53614303    -0.60000
In131      In  0.36995992  0.70118453  0.49813067     1.36900
C132        C  0.40545825  0.67676518  0.44184585     0.77600
O133        O  0.35465374  0.73912220  0.45920302    -0.60800
O134        O  0.38847088  0.74747238  0.50368271    -0.51700
C135        C  0.31171873  0.69153761  0.50486057     0.70300
O136        O  0.32571678  0.68709910  0.47147785    -0.46600
C137        C  0.39207034  0.67807100  0.56766512     0.75000
O138        O  0.38078878  0.66545478  0.45186814    -0.58400
O139        O  0.38430741  0.70487363  0.56501053    -0.48500
O140        O  0.41160042  0.70057691  0.46030641    -0.54900
C141        C  0.37289673  0.75744713  0.47406281     0.85200
O142        O  0.32767080  0.70037833  0.53464415    -0.56700
O143        O  0.38880453  0.66336702  0.53471300    -0.60000
In144      In  0.54453010  0.60294816  0.30295850     1.36900
C145        C  0.57870459  0.62015941  0.36584269     0.77600
O146        O  0.53608249  0.63011379  0.24487026    -0.60800
O147        O  0.57740646  0.60803832  0.25168909    -0.51700
C148        C  0.54356971  0.54585395  0.28405941     0.70300
O149        O  0.56559693  0.55811002  0.30122600    -0.46600
C150        C  0.49497079  0.62535728  0.33564060     0.75000
O151        O  0.55978373  0.59983992  0.36962365    -0.58400
O152        O  0.51378241  0.64070879  0.31620124    -0.48500
O153        O  0.58168564  0.62975290  0.32942276    -0.54900
C154        C  0.56132122  0.62450540  0.22947980     0.85200
O155        O  0.52168675  0.56274992  0.27731750    -0.56700
O156        O  0.50048918  0.59797534  0.33565113    -0.60000
In157      In  0.36266745  0.28378573  0.03108307     1.36900
C158        C  0.40118517  0.31474919  0.07563682     0.77600
O159        O  0.36114229  0.25785798  0.08973801    -0.60800
O160        O  0.37672976  0.23579788  0.03562570    -0.51700
C161        C  0.30368807  0.28647239  0.02491679     0.70300
O162        O  0.31914274  0.30884931  0.03412880    -0.46600
C163        C  0.37822793  0.29982479  0.95472341     0.75000
O164        O  0.37341289  0.31645669  0.08168219    -0.58400
O165        O  0.38119447  0.27347937  0.96737205    -0.48500
O166        O  0.40873411  0.29810608  0.04602776    -0.54900
C167        C  0.37139401  0.23432015  0.07424048     0.85200
O168        O  0.31842953  0.26310897  0.01933306    -0.56700
O169        O  0.36676553  0.31713946  0.98084246    -0.60000
In170      In  0.54234410  0.36333668  0.23059352     1.36900
C171        C  0.57702036  0.32666894  0.18786809     0.77600
O172        O  0.56861242  0.36254186  0.28923246    -0.60800
O173        O  0.52913587  0.33661411  0.28676298    -0.51700
C174        C  0.54432532  0.42150049  0.24232475     0.70300
O175        O  0.56673840  0.40699692  0.23002748    -0.46600
C176        C  0.49499275  0.35618601  0.18259238     0.75000
O177        O  0.57759679  0.35429514  0.18195291    -0.58400
O178        O  0.49384343  0.35222460  0.22146293    -0.48500
O179        O  0.56021538  0.31852538  0.21694075    -0.54900
C180        C  0.55156871  0.34471932  0.30765424     0.85200
O181        O  0.52118661  0.40615828  0.24744427    -0.56700
O182        O  0.51973873  0.36525189  0.16942281    -0.60000
In183      In  0.44436696  0.10141694  0.22461771     1.36900
C184        C  0.41142872  0.13880014  0.17920363     0.77600
O185        O  0.41464792  0.10188160  0.28052532    -0.60800
O186        O  0.45469380  0.12681371  0.28303997    -0.51700
C187        C  0.44372796  0.04290688  0.23508400     0.70300
O188        O  0.42151912  0.05686586  0.22071040    -0.46600
C189        C  0.49451442  0.10860413  0.18231915     0.75000
O190        O  0.41160181  0.11128470  0.17215473    -0.58400
O191        O  0.49280758  0.11436370  0.22069922    -0.48500
O192        O  0.42685198  0.14647991  0.21008241    -0.54900
C193        C  0.43099716  0.11920478  0.30125076     0.85200
O194        O  0.46587249  0.05896271  0.24348758    -0.56700
O195        O  0.47091469  0.09841453  0.16659042    -0.60000
In196      In  0.62581733  0.18433778  0.03683725     1.36900
C197        C  0.58914450  0.15082570  0.07984598     0.77600
O198        O  0.62925696  0.20868617  0.09660610    -0.60800
O199        O  0.61377083  0.23273868  0.04428645    -0.51700
C200        C  0.68385967  0.18373412  0.02278344     0.70300
O201        O  0.67190592  0.16737103  0.04983853    -0.46600
C202        C  0.60713778  0.16571515  0.96313344     0.75000
O203        O  0.61710676  0.14833507  0.08351333    -0.58400
O204        O  0.60032199  0.19104615  0.97713531    -0.48500
O205        O  0.58044564  0.16968823  0.05366216    -0.54900
C206        C  0.61926627  0.23277779  0.08290082     0.85200
O207        O  0.66611825  0.20050350  0.00351432    -0.56700
O208        O  0.62342992  0.15048466  0.98698630    -0.60000
In209      In  0.61956571  0.27874776  0.53291578     1.36900
C210        C  0.58331193  0.30064630  0.58989481     0.77600
O211        O  0.60695086  0.31586821  0.49100077    -0.60800
O212        O  0.59418051  0.27263887  0.47288611    -0.51700
C213        C  0.67751712  0.28425131  0.51827036     0.70300
O214        O  0.66364816  0.30176147  0.54198451    -0.46600
C215        C  0.62105286  0.22603158  0.56798559     0.75000
O216        O  0.60860418  0.31192503  0.58304882    -0.58400
O217        O  0.60928544  0.23017067  0.53264333    -0.48500
O218        O  0.57674096  0.27898078  0.56706787    -0.54900
C219        C  0.59388935  0.29992963  0.46453305     0.85200
O220        O  0.66145044  0.26482902  0.50123935    -0.56700
O221        O  0.63309902  0.24864010  0.58376863    -0.60000
In222      In  0.55277066  0.10280702  0.72713535     1.36900
C223        C  0.58784572  0.13188596  0.67439899     0.77600
O224        O  0.51744814  0.09537811  0.67862608    -0.60800
O225        O  0.51016839  0.12891202  0.72344553    -0.51700
C226        C  0.55184534  0.04534741  0.74324881     0.70300
O227        O  0.57400105  0.05762715  0.72639258    -0.46600
C228        C  0.56799529  0.12206411  0.80246395     0.75000
O229        O  0.57737863  0.10678562  0.66568761    -0.58400
O230        O  0.58409262  0.10474549  0.78140219    -0.48500
O231        O  0.58172845  0.14077971  0.71033006    -0.54900
C232        C  0.50069748  0.11578991  0.69138790     0.85200
O233        O  0.53059456  0.06255753  0.75157562    -0.56700
O234        O  0.54370647  0.12908790  0.78509902    -0.60000
In235      In  0.43745918  0.36299404  0.72288032     1.36900
C236        C  0.40341878  0.33809737  0.66404120     0.77600
O237        O  0.47916059  0.37021550  0.68665147    -0.60800
O238        O  0.47402311  0.32914336  0.71759215    -0.51700
C239        C  0.44029928  0.42056361  0.74071368     0.70300
O240        O  0.41976308  0.40969846  0.71850866    -0.46600
C241        C  0.42029998  0.34246462  0.79605073     0.75000
O242        O  0.39942993  0.33421984  0.70226830    -0.58400
O243        O  0.40548067  0.36118496  0.77554836    -0.48500
O244        O  0.42267423  0.35742799  0.65585041    -0.54900
C245        C  0.48962622  0.34483026  0.69360435     0.85200
O246        O  0.45925437  0.40197164  0.75309892    -0.56700
O247        O  0.44443135  0.33448674  0.77927261    -0.60000
In248      In  0.37030763  0.18546695  0.53230218     1.36900
C249        C  0.40617657  0.15990744  0.58785362     0.77600
O250        O  0.37867425  0.14846995  0.48757733    -0.60800
O251        O  0.39470741  0.19095913  0.47136559    -0.51700
C252        C  0.31219997  0.17950871  0.52058143     0.70300
O253        O  0.32519611  0.16989786  0.55273796    -0.46600
C254        C  0.36985257  0.24046345  0.56230673     0.75000
O255        O  0.38253830  0.14759638  0.57547659    -0.58400
O256        O  0.38375474  0.23357458  0.52950211    -0.48500
O257        O  0.41133456  0.18459973  0.57145692    -0.54900
C258        C  0.39188545  0.16411694  0.46101236     0.85200
O259        O  0.32905771  0.19186804  0.49459980    -0.56700
O260        O  0.35521076  0.21950756  0.57802591    -0.60000
In261      In  0.12045219  0.78211574  0.04124193     1.36900
C262        C  0.08586611  0.81356327  0.09226596     0.77600
O263        O  0.09429827  0.77438600  0.98281832    -0.60800
O264        O  0.11645099  0.81554979  0.99056336    -0.51700
C265        C  0.17896285  0.78477278  0.02732214     0.70300
O266        O  0.16283220  0.76344179  0.01595023    -0.46600
C267        C  0.11312285  0.72911965  0.07539649     0.75000
O268        O  0.07695770  0.80210647  0.05889660    -0.58400
O269        O  0.10363161  0.73504339  0.03937835    -0.48500
O270        O  0.11317295  0.80949535  0.09986961    -0.54900
C271        C  0.09968830  0.79973163  0.96815349     0.85200
O272        O  0.16498471  0.80518071  0.04573504    -0.56700
O273        O  0.12668099  0.75011894  0.09290451    -0.60000
In274      In  0.04148833  0.60454471  0.23312581     1.36900
C275        C  0.07458592  0.63385666  0.17799519     0.77600
O276        O  0.00165187  0.59628890  0.19311636    -0.60800
O277        O  0.00244778  0.63542717  0.22947792    -0.51700
C278        C  0.04427125  0.54638713  0.24382854     0.70300
O279        O  0.06514747  0.56092491  0.22740988    -0.46600
C280        C  0.05678018  0.62203960  0.30901414     0.75000
O281        O  0.05978718  0.61131124  0.16799194    -0.58400
O282        O  0.03163884  0.62810995  0.29341186    -0.48500
O283        O  0.07377657  0.63987229  0.21605831    -0.54900
C284        C  0.98909130  0.62034646  0.20218129     0.85200
O285        O  0.02199928  0.56167858  0.25429062    -0.56700
O286        O  0.07327290  0.60636748  0.28623747    -0.60000
In287      In  0.93957199  0.86542506  0.23465891     1.36900
C288        C  0.90574289  0.83518952  0.18178811     0.77600
O289        O  0.96801953  0.86987739  0.17841091    -0.60800
O290        O  0.98778509  0.85062554  0.23175424    -0.51700
C291        C  0.93904391  0.92276747  0.25181070     0.70300
O292        O  0.91734922  0.90989778  0.23450685    -0.46600
C293        C  0.92216891  0.84404431  0.30800260     0.75000
O294        O  0.90962036  0.86268613  0.17804927    -0.58400
O295        O  0.94579072  0.83549462  0.29027678    -0.48500
O296        O  0.91811267  0.82377523  0.21306729    -0.54900
C297        C  0.99073016  0.85783662  0.19399539     0.85200
O298        O  0.96086846  0.90618894  0.26012943    -0.56700
O299        O  0.90786058  0.86348482  0.28814044    -0.60000
In300      In  0.86450431  0.69226672  0.03702659     1.36900
C301        C  0.89965666  0.66699541  0.09309243     0.77600
O302        O  0.87629415  0.65680838  0.99190940    -0.60800
O303        O  0.89161721  0.70016828  0.97907773    -0.51700
C304        C  0.80675912  0.68455882  0.02300907     0.70300
O305        O  0.82009302  0.67315968  0.05362781    -0.46600
C306        C  0.86434381  0.74531859  0.07229742     0.75000
O307        O  0.87519680  0.65550462  0.08232124    -0.58400
O308        O  0.87528939  0.74093836  0.03665452    -0.48500
O309        O  0.90626828  0.69035210  0.07406754    -0.54900
C310        C  0.89080804  0.67340416  0.96788390     0.85200
O311        O  0.82313567  0.69947542  0.99912372    -0.56700
O312        O  0.85135492  0.72317819  0.08759819    -0.60000
In313      In  0.12720703  0.18800613  0.48414820     1.36900
C314        C  0.08669277  0.16200176  0.43647589     0.77600
O315        O  0.11752450  0.15246142  0.53009599    -0.60800
O316        O  0.10579287  0.19650051  0.54651731    -0.51700
C317        C  0.18507114  0.18071552  0.49684498     0.70300
O318        O  0.17127643  0.16748460  0.46804703    -0.46600
C319        C  0.12623165  0.23843315  0.44178506     0.75000
O320        O  0.11361100  0.15363609  0.43669658    -0.58400
O321        O  0.11745436  0.23694052  0.47908741    -0.48500
O322        O  0.08087874  0.18280614  0.46127387    -0.54900
C323        C  0.10611858  0.16947690  0.55687013     0.85200
O324        O  0.16915912  0.19731447  0.51915590    -0.56700
O325        O  0.13750619  0.21486787  0.42817510    -0.60000
In326      In  0.04686407  0.36226100  0.28605135     1.36900
C327        C  0.08306465  0.32999145  0.33427240     0.77600
O328        O  0.01822273  0.36676899  0.34215427    -0.60800
O329        O  0.99913223  0.34666389  0.28897844    -0.51700
C330        C  0.04698127  0.42020119  0.27255138     0.70300
O331        O  0.06933290  0.40683207  0.28747949    -0.46600
C332        C  0.05837637  0.34279338  0.20984132     0.75000
O333        O  0.07731566  0.35671780  0.34211426    -0.58400
O334        O  0.03744905  0.33247697  0.23164871    -0.48500
O335        O  0.07173542  0.32069204  0.30096750    -0.54900
C336        C  0.99563795  0.35473681  0.32621687     0.85200
O337        O  0.02509575  0.40375295  0.26441330    -0.56700
O338        O  0.07321620  0.36307107  0.22720248    -0.60000
In339      In  0.86277605  0.28675179  0.47680007     1.36900
C340        C  0.89856670  0.31848625  0.42904880     0.77600
O341        O  0.86409833  0.31941940  0.52833027    -0.60800
O342        O  0.88991206  0.28018765  0.53473033    -0.51700
C343        C  0.80468924  0.28637925  0.49093462     0.70300
O344        O  0.81779498  0.30838353  0.47507312    -0.46600
C345        C  0.86945233  0.23765543  0.43322086     0.75000
O346        O  0.87064990  0.31849209  0.42357607    -0.58400
O347        O  0.87653891  0.23881562  0.47134525    -0.48500
O348        O  0.90754537  0.30332147  0.45938463    -0.54900
C349        C  0.88237072  0.30486496  0.55008471     0.85200
O350        O  0.82143300  0.26480593  0.49963186    -0.56700
O351        O  0.85784040  0.26094953  0.41905741    -0.60000
In352      In  0.94400638  0.10733910  0.28450525     1.36900
C353        C  0.90956611  0.14338043  0.32791014     0.77600
O354        O  0.96722938  0.11081580  0.34537750    -0.60800
O355        O  0.99286356  0.11941924  0.29145341    -0.51700
C356        C  0.94264289  0.04886180  0.27912051     0.70300
O357        O  0.92068819  0.06377753  0.29181643    -0.46600
C358        C  0.93095587  0.12451667  0.20705023     0.75000
O359        O  0.90958217  0.11580160  0.33417608    -0.58400
O360        O  0.95479759  0.13180083  0.22533972    -0.48500
O361        O  0.92544349  0.15173338  0.29790261    -0.54900
C362        C  0.99183898  0.11896620  0.33074365     0.85200
O363        O  0.96520592  0.06399837  0.26969394    -0.56700
O364        O  0.91446866  0.10758507  0.22796657    -0.60000
In365      In  0.36551381  0.78253629  0.99012937     1.36900
C366        C  0.39618285  0.82119732  0.94456283     0.77600
O367        O  0.36356330  0.80732215  0.05018970    -0.60800
O368        O  0.39562095  0.77308757  0.04549415    -0.51700
C369        C  0.30649599  0.78343244  0.99980580     0.70300
O370        O  0.32109268  0.80583227  0.98849212    -0.46600
C371        C  0.37725464  0.73349827  0.94595575     0.75000
O372        O  0.36968581  0.81415248  0.93613958    -0.58400
O373        O  0.38015685  0.73450294  0.98501809    -0.48500
O374        O  0.40609467  0.80998655  0.97763913    -0.54900
C375        C  0.38446302  0.79336192  0.06763455     0.85200
O376        O  0.32212397  0.76064203  0.00580962    -0.56700
O377        O  0.36786121  0.75723138  0.93026015    -0.60000
In378      In  0.62069165  0.68544561  0.99467965     1.36900
C379        C  0.59736255  0.65123185  0.93532900     0.77600
O380        O  0.61775801  0.65285105  0.04691780    -0.60800
O381        O  0.59485324  0.69342142  0.05418953    -0.51700
C382        C  0.67945163  0.68329654  0.00215257     0.70300
O383        O  0.66568521  0.66951073  0.97399339    -0.46600
C384        C  0.60105866  0.73726109  0.96642968     0.75000
O385        O  0.61241279  0.67397123  0.92742562    -0.58400
O386        O  0.58405809  0.71746427  0.98044191    -0.48500
O387        O  0.59626317  0.64489642  0.97338217    -0.54900
C388        C  0.60148133  0.66864341  0.06982375     0.85200
O389        O  0.66320044  0.69861020  0.02571207    -0.56700
O390        O  0.62841711  0.73183177  0.97123513    -0.60000
In391      In  0.45246014  0.60339306  0.79183248     1.36900
C392        C  0.42269520  0.64004627  0.84153827     0.77600
O393        O  0.48451838  0.59627361  0.84383849    -0.60800
O394        O  0.49909120  0.62177765  0.79243263    -0.51700
C395        C  0.44712075  0.54532242  0.77982067     0.70300
O396        O  0.42631678  0.56078099  0.79483268    -0.46600
C397        C  0.43476076  0.62323822  0.71825796     0.75000
O398        O  0.42330561  0.61244879  0.84805457    -0.58400
O399        O  0.46189996  0.61846875  0.72639466    -0.48500
O400        O  0.43738595  0.64833575  0.81037079    -0.54900
C401        C  0.50526363  0.61110739  0.82771591     0.85200
O402        O  0.47044766  0.55954881  0.77166354    -0.56700
O403        O  0.41696857  0.61661895  0.74697520    -0.60000
In404      In  0.53839722  0.86338057  0.79548034     1.36900
C405        C  0.56150867  0.82742368  0.85204303     0.77600
O406        O  0.51017416  0.87697544  0.84889211    -0.60800
O407        O  0.49002591  0.85086503  0.80157363    -0.51700
C408        C  0.54599057  0.92053218  0.78014303     0.70300
O409        O  0.56582476  0.90533063  0.79819812    -0.46600
C410        C  0.55411452  0.83816764  0.72364885     0.75000
O411        O  0.57217370  0.85300826  0.84597533    -0.58400
O412        O  0.52795904  0.84721373  0.73043771    -0.48500
O413        O  0.54043556  0.82041272  0.82796495    -0.54900
C414        C  0.48737911  0.86308619  0.83681989     0.85200
O415        O  0.52307965  0.90624909  0.76984975    -0.56700
O416        O  0.57192720  0.84229582  0.75338038    -0.60000
C417        C  0.58991594  0.76310774  0.94257977    -0.05400
C418        C  0.60954362  0.78580645  0.93055014    -0.32800
C419        C  0.60049201  0.80781126  0.90231839     0.36400
C420        C  0.57164660  0.80691486  0.88503704    -0.05800
C421        C  0.55178106  0.78500329  0.89844805    -0.32700
C422        C  0.56058343  0.76333019  0.92678679     0.36300
H423        H  0.63225560  0.78596988  0.94199810     0.16700
O424        O  0.62056205  0.82883488  0.88991751    -0.60200
H425        H  0.52930520  0.78418486  0.88612754     0.16700
O426        O  0.54057383  0.74170711  0.93730210    -0.60300
H427        H  0.54231689  0.72652688  0.91514995     0.43700
H428        H  0.61903981  0.84482047  0.91091107     0.43700
C429        C  0.57982496  0.63534094  0.90336188    -0.05400
C430        C  0.57693246  0.64750107  0.86334172    -0.32800
C431        C  0.55416191  0.63811870  0.83653353     0.36400
C432        C  0.53366138  0.61656126  0.84995517    -0.05800
C433        C  0.53885681  0.60206593  0.88787322    -0.32700
C434        C  0.56186821  0.61104886  0.91428592     0.36300
H435        H  0.59094451  0.66576958  0.85386893     0.16700
O436        O  0.55073502  0.65194955  0.79891544    -0.60200
H437        H  0.52401331  0.58472216  0.89825156     0.16700
O438        O  0.56494693  0.59742599  0.95211267    -0.60300
H439        H  0.58146089  0.58308041  0.94841011     0.43700
H440        H  0.56130461  0.63918146  0.77871820     0.43700
C441        C  0.38513281  0.70742316  0.91989839    -0.05400
C442        C  0.38404547  0.71007835  0.87636722    -0.32800
C443        C  0.39466643  0.68748974  0.85062866     0.36400
C444        C  0.40677787  0.66156186  0.86811171    -0.05800
C445        C  0.40592146  0.65784409  0.91137411    -0.32700
C446        C  0.39524046  0.68053777  0.93725794     0.36300
H447        H  0.37582959  0.73018738  0.86207450     0.16700
O448        O  0.39387703  0.69138439  0.80833823    -0.60200
H449        H  0.41489634  0.63792255  0.92528618     0.16700
O450        O  0.39600373  0.67661825  0.97947117    -0.60300
H451        H  0.37649577  0.66769507  0.98652146     0.43700
H452        H  0.37666422  0.67952092  0.79852271     0.43700
C453        C  0.41528538  0.83882009  0.91661659    -0.05400
C454        C  0.44043632  0.85302180  0.93305308    -0.32800
C455        C  0.46290808  0.86356084  0.90698448     0.36400
C456        C  0.46086641  0.85919734  0.86359957    -0.05800
C457        C  0.43453473  0.84726427  0.84697038    -0.32700
C458        C  0.41161321  0.83753503  0.87311535     0.36300
H459        H  0.44347954  0.85453322  0.96640795     0.16700
O460        O  0.48799955  0.87546093  0.92469600    -0.60200
H461        H  0.43232850  0.84405254  0.81373891     0.16700
O462        O  0.38718847  0.82407246  0.85584180    -0.60300
H463        H  0.37184590  0.83980793  0.85400025     0.43700
H464        H  0.48414698  0.89703472  0.92596898     0.43700
C465        C  0.87558519  0.21194099  0.40614858    -0.05400
C466        C  0.88184273  0.18402452  0.42324108    -0.32800
C467        C  0.89076298  0.16046327  0.39766364     0.36400
C468        C  0.89412309  0.16496474  0.35457457    -0.05800
C469        C  0.88672135  0.19246131  0.33751200    -0.32700
C470        C  0.87730624  0.21571299  0.36268990     0.36300
H471        H  0.88063385  0.18068770  0.45652888     0.16700
O472        O  0.89851199  0.13401398  0.41549442    -0.60200
H473        H  0.88936806  0.19636256  0.30449909     0.16700
O474        O  0.87220693  0.24273449  0.34466871    -0.60300
H475        H  0.85169983  0.24158784  0.33329556     0.43700
H476        H  0.87966166  0.12271115  0.41739662     0.43700
C477        C  0.91982257  0.33338295  0.40140508    -0.05400
C478        C  0.91865785  0.32815197  0.35846891    -0.32800
C479        C  0.94270664  0.33595217  0.33293750     0.36400
C480        C  0.96806370  0.34968246  0.35036364    -0.05800
C481        C  0.96795375  0.35691640  0.39283956    -0.32700
C482        C  0.94422712  0.34869594  0.41829871     0.36300
H483        H  0.90002533  0.31619101  0.34516383     0.16700
O484        O  0.94153241  0.32922197  0.29140403    -0.60200
H485        H  0.98694417  0.36781336  0.40693002     0.16700
O486        O  0.94570435  0.35447904  0.46010974    -0.60300
H487        H  0.93921427  0.37533451  0.46308797     0.43700
H488        H  0.94796442  0.30828314  0.28943463     0.43700
C489        C  0.12127995  0.26458171  0.41478969    -0.05400
C490        C  0.10952227  0.29073284  0.43170933    -0.32800
C491        C  0.09905991  0.31351724  0.40585291     0.36400
C492        C  0.09995944  0.31014968  0.36232345    -0.05800
C493        C  0.11362701  0.28497245  0.34550645    -0.32700
C494        C  0.12428998  0.26236229  0.37118349     0.36300
H495        H  0.10696229  0.29292618  0.46503400     0.16700
O496        O  0.08530915  0.33753324  0.42340265    -0.60200
H497        H  0.11474308  0.28209300  0.31210631     0.16700
O498        O  0.13606016  0.23750445  0.35303978    -0.60300
H499        H  0.11866703  0.22528278  0.34493365     0.43700
H500        H  0.10169917  0.34987436  0.43478775     0.43700
C501        C  0.06333011  0.14907953  0.40958775    -0.05400
C502        C  0.03360276  0.15124257  0.42241754    -0.32800
C503        C  0.01044080  0.14081888  0.39739587     0.36400
C504        C  0.01661319  0.12851451  0.35805302    -0.05800
C505        C  0.04636114  0.12643613  0.34491303    -0.32700
C506        C  0.06970355  0.13638765  0.37056156     0.36300
H507        H  0.02819132  0.16120829  0.45209506     0.16700
O508        O  0.98166193  0.14429172  0.41082928    -0.60200
H509        H  0.05150444  0.11713160  0.31474369     0.16700
O510        O  0.09848859  0.13431648  0.35671942    -0.60300
H511        H  0.10232230  0.15317538  0.34201949     0.43700
H512        H  0.97824708  0.12781439  0.43053097     0.43700
C513        C  0.77433881  0.68181629  0.01683909    -0.05400
C514        C  0.75576547  0.68075529  0.05177347    -0.32800
C515        C  0.72479297  0.68129788  0.04726859     0.36400
C516        C  0.71196453  0.68169229  0.00733841    -0.05800
C517        C  0.73046330  0.68117036  0.97229921    -0.32700
C518        C  0.76150892  0.68187003  0.97682772     0.36300
H519        H  0.76528051  0.68062852  0.08275658     0.16700
O520        O  0.70721406  0.68074452  0.08205990    -0.60200
H521        H  0.72083107  0.68125419  0.94138418     0.16700
O522        O  0.77910053  0.68204912  0.94205275    -0.60300
H523        H  0.77941766  0.70293930  0.93271516     0.43700
H524        H  0.70629483  0.70155402  0.09175063     0.43700
C525        C  0.93939650  0.95475692  0.26097000    -0.05400
C526        C  0.96688780  0.96917845  0.26522886    -0.32800
C527        C  0.96826250  0.99971782  0.27148551     0.36400
C528        C  0.94180841  0.01636639  0.27465046    -0.05800
C529        C  0.91426224  0.00180453  0.27184334    -0.32700
C530        C  0.91290786  0.97128765  0.26462763     0.36300
H531        H  0.98750194  0.95686420  0.26246789     0.16700
O532        O  0.99563330  0.01308699  0.27354425    -0.60200
H533        H  0.89367847  0.01422087  0.27407211     0.16700
O534        O  0.88561580  0.95797553  0.26062602    -0.60300
H535        H  0.87922991  0.95351513  0.28942175     0.43700
H536        H  0.00084337  0.01343566  0.30351240     0.43700
C537        C  0.88931026  0.81700958  0.15154248    -0.05400
C538        C  0.89658064  0.81829667  0.10920334    -0.32800
C539        C  0.88656103  0.79629330  0.08169980     0.36400
C540        C  0.86894336  0.77276861  0.09664904    -0.05800
C541        C  0.85949849  0.77332044  0.13826432    -0.32700
C542        C  0.86970798  0.79505872  0.16561130     0.36300
H543        H  0.91180306  0.83507212  0.09804702     0.16700
O544        O  0.89610777  0.79671995  0.04126183    -0.60200
H545        H  0.84572521  0.75572506  0.15050279     0.16700
O546        O  0.86178235  0.79366962  0.20669580    -0.60300
H547        H  0.84461113  0.80732097  0.20944101     0.43700
H548        H  0.88293034  0.81112214  0.02697657     0.43700
C549        C  0.04549955  0.51407980  0.25045044    -0.05400
C550        C  0.01880231  0.49813684  0.25323146    -0.32800
C551        C  0.01900925  0.46761959  0.26006622     0.36400
C552        C  0.04628437  0.45246915  0.26504875    -0.05800
C553        C  0.07301182  0.46845781  0.26264772    -0.32700
C554        C  0.07278683  0.49894749  0.25479988     0.36300
H555        H  0.99760110  0.50935077  0.24975958     0.16700
O556        O  0.99233925  0.45291473  0.26193749    -0.60200
H557        H  0.09418520  0.45725267  0.26639529     0.16700
O558        O  0.09931555  0.51388525  0.25299302    -0.60300
H559        H  0.10657570  0.51094926  0.22421885     0.43700
H560        H  0.98730720  0.45207977  0.29191462     0.43700
C561        C  0.96247955  0.63117801  0.17985389    -0.05400
C562        C  0.95687932  0.66168490  0.17888952    -0.32800
C563        C  0.93583073  0.67345048  0.15144154     0.36400
C564        C  0.91932163  0.65456629  0.12530419    -0.05800
C565        C  0.92316524  0.62391077  0.12852465    -0.32700
C566        C  0.94491478  0.61215273  0.15513871     0.36300
H567        H  0.97000258  0.67668958  0.19774833     0.16700
O568        O  0.93148097  0.70348179  0.15042087    -0.60200
H569        H  0.91039451  0.60914253  0.10884882     0.16700
O570        O  0.94908484  0.58211705  0.15635608    -0.60300
H571        H  0.96127226  0.57740924  0.13154944     0.43700
H572        H  0.94768490  0.71132665  0.13270024     0.43700
C573        C  0.21157489  0.78518350  0.01987541    -0.05400
C574        C  0.22586938  0.75896513  0.00750920    -0.32800
C575        C  0.25669307  0.75808755  0.00122728     0.36400
C576        C  0.27383941  0.78391529  0.00604698    -0.05800
C577        C  0.25958733  0.81029666  0.01772596    -0.32700
C578        C  0.22878151  0.81101576  0.02505352     0.36300
H579        H  0.21317399  0.73882787  0.00323579     0.16700
O580        O  0.26968931  0.73201229  0.98916735    -0.60200
H581        H  0.27246128  0.83032609  0.02198046     0.16700
O582        O  0.21585819  0.83699143  0.03765011    -0.60300
H583        H  0.21203969  0.84822606  0.01173343     0.43700
H584        H  0.27374099  0.72117316  0.01535656     0.43700
C585        C  0.08972475  0.65333798  0.14793205    -0.05400
C586        C  0.07920510  0.65550111  0.10687293    -0.32800
C587        C  0.08809575  0.67906757  0.08134181     0.36400
C588        C  0.10778068  0.70073048  0.09699410    -0.05800
C589        C  0.12047671  0.69664156  0.13647677    -0.32700
C590        C  0.11172528  0.67321991  0.16175071     0.36300
H591        H  0.06255195  0.64015107  0.09550537     0.16700
O592        O  0.07644716  0.68134424  0.04201905    -0.60200
H593        H  0.13626453  0.71250896  0.14880013     0.16700
O594        O  0.12361438  0.67103424  0.20093893    -0.60300
H595        H  0.13890287  0.65525653  0.19898773     0.43700
H596        H  0.05682729  0.69110420  0.04554715     0.43700
C597        C  0.01771922  0.85119693  0.16903169    -0.05400
C598        C  0.04245325  0.83733015  0.18761564    -0.32800
C599        C  0.06603750  0.82652727  0.16330188     0.36400
C600        C  0.06509521  0.82959812  0.11977769    -0.05800
C601        C  0.04140833  0.84511590  0.10155742    -0.32700
C602        C  0.01793376  0.85591868  0.12561985     0.36300
H603        H  0.04288547  0.83358534  0.22085335     0.16700
O604        O  0.08881878  0.81134530  0.18212368    -0.60200
H605        H  0.04047574  0.84787284  0.06811733     0.16700
O606        O  0.99478561  0.87002224  0.10596467    -0.60300
H607        H  0.98146059  0.85399736  0.09606928     0.43700
H608        H  0.08219846  0.79044073  0.18271898     0.43700
C609        C  0.27973702  0.17734923  0.51426724    -0.05400
C610        C  0.26076512  0.17754808  0.54882377    -0.32800
C611        C  0.22980777  0.17826169  0.54356451     0.36400
C612        C  0.21743434  0.17784856  0.50331310    -0.05800
C613        C  0.23635771  0.17624769  0.46880546    -0.32700
C614        C  0.26732422  0.17645518  0.47400635     0.36300
H615        H  0.26994859  0.17811480  0.57999052     0.16700
O616        O  0.21179827  0.17862592  0.57792735    -0.60200
H617        H  0.22712939  0.17586130  0.43765803     0.16700
O618        O  0.28525106  0.17516506  0.43959737    -0.60300
H619        H  0.28652294  0.19580225  0.42936990     0.43700
H620        H  0.21182420  0.19945145  0.58763372     0.43700
C621        C  0.44202660  0.45237709  0.75167646    -0.05400
C622        C  0.41642115  0.47018598  0.74916197    -0.32800
C623        C  0.41753160  0.50029175  0.75956879     0.36400
C624        C  0.44468610  0.51324078  0.77173625    -0.05800
C625        C  0.47029531  0.49550694  0.77417063    -0.32700
C626        C  0.46905658  0.46527623  0.76490966     0.36300
H627        H  0.39542221  0.46073588  0.73919528     0.16700
O628        O  0.39231639  0.51718444  0.75551916    -0.60200
H629        H  0.49141009  0.50512339  0.78337515     0.16700
O630        O  0.49470663  0.44885545  0.76728415    -0.60300
H631        H  0.49610034  0.44245389  0.79669717     0.43700
H632        H  0.38196248  0.51546908  0.78256556     0.43700
C633        C  0.38914733  0.31887713  0.63239034    -0.05400
C634        C  0.36559625  0.30041589  0.64446003    -0.32800
C635        C  0.35727822  0.27605406  0.62017516     0.36400
C636        C  0.37257580  0.26978158  0.58289338    -0.05800
C637        C  0.39381796  0.29014915  0.56860426    -0.32700
C638        C  0.40224405  0.31446398  0.59305858     0.36300
H639        H  0.35485466  0.30367173  0.67423303     0.16700
O640        O  0.33507909  0.25781412  0.63421830    -0.60200
H641        H  0.40554739  0.28609998  0.53978313     0.16700
O642        O  0.42488986  0.33234438  0.57955106    -0.60300
H643        H  0.44349656  0.32250235  0.58888519     0.43700
H644        H  0.34456101  0.24521004  0.65573458     0.43700
C645        C  0.54842987  0.95256148  0.77182310    -0.05400
C646        C  0.52214196  0.96875479  0.76534739    -0.32800
C647        C  0.52304107  0.99891887  0.75641606     0.36400
C648        C  0.55063660  0.01344796  0.75277290    -0.05800
C649        C  0.57703490  0.99732012  0.75902989    -0.32700
C650        C  0.57606503  0.96716033  0.76917647     0.36300
H651        H  0.50063425  0.95800615  0.76737825     0.16700
O652        O  0.49677210  0.01370403  0.74967762    -0.60200
H653        H  0.59844513  0.00819885  0.75659049     0.16700
O654        O  0.60222023  0.95202950  0.77496463    -0.60300
H655        H  0.60682703  0.95413457  0.80496820     0.43700
H656        H  0.48975126  0.01961978  0.77767664     0.43700
C657        C  0.47326646  0.12488697  0.66911615    -0.05400
C658        C  0.46250611  0.15374211  0.67469197    -0.32800
C659        C  0.43979591  0.16490346  0.64933112     0.36400
C660        C  0.42673759  0.14689463  0.61863421    -0.05800
C661        C  0.43574601  0.11730555  0.61510672    -0.32700
C662        C  0.45919758  0.10634651  0.63967215     0.36300
H663        H  0.47275256  0.16828417  0.69734781     0.16700
O664        O  0.43045719  0.19354174  0.65473278    -0.60200
H665        H  0.42575136  0.10316110  0.59173649     0.16700
O666        O  0.46830262  0.07762542  0.63445380    -0.60300
H667        H  0.48132032  0.07786175  0.60960683     0.43700
H668        H  0.44545835  0.20587720  0.64032483     0.43700
C669        C  0.71008428  0.28540606  0.51170054    -0.05400
C670        C  0.72528943  0.25920200  0.50175117    -0.32800
C671        C  0.75611956  0.25916276  0.49567537     0.36400
C672        C  0.77227113  0.28578204  0.49851433    -0.05800
C673        C  0.75711416  0.31203964  0.50823892    -0.32700
C674        C  0.72632108  0.31191102  0.51554079     0.36300
H675        H  0.71324974  0.23852879  0.49910150     0.16700
O676        O  0.77012840  0.23301345  0.48640201    -0.60200
H677        H  0.76923817  0.33267111  0.51067314     0.16700
O678        O  0.71217898  0.33796964  0.52480327    -0.60300
H679        H  0.71578576  0.34116601  0.55487855     0.43700
H680        H  0.77200073  0.23282941  0.45571123     0.43700
C681        C  0.56248572  0.31175018  0.62153294    -0.05400
C682        C  0.55995347  0.34218345  0.62871960    -0.32800
C683        C  0.53707549  0.35328878  0.65382129     0.36400
C684        C  0.51677170  0.33375880  0.67285399    -0.05800
C685        C  0.52081133  0.30316596  0.66808340    -0.32700
C686        C  0.54337903  0.29212253  0.64254449     0.36300
H687        H  0.57474524  0.35748438  0.61316023     0.16700
O688        O  0.53458411  0.38327189  0.65921787    -0.60200
H689        H  0.50556799  0.28776259  0.68256590     0.16700
O690        O  0.54601104  0.26210743  0.63739170    -0.60300
H691        H  0.56338851  0.25625017  0.65463997     0.43700
H692        H  0.52439823  0.39060100  0.63384820     0.43700
C693        C  0.61897230  0.19792029  0.59124482    -0.05400
C694        C  0.62943410  0.19724469  0.63238840    -0.32800
C695        C  0.62167678  0.17418238  0.65900880     0.36400
C696        C  0.60355120  0.15098573  0.64450656    -0.05800
C697        C  0.59608553  0.14975771  0.60213636    -0.32700
C698        C  0.60348941  0.17318281  0.57551090     0.36300
H699        H  0.64203848  0.21561619  0.64497596     0.16700
O700        O  0.63099716  0.17505718  0.69965488    -0.60200
H701        H  0.58239708  0.13188538  0.59036691     0.16700
O702        O  0.59428919  0.17226709  0.53484617    -0.60300
H703        H  0.57312377  0.17853173  0.53526668     0.43700
H704        H  0.61804406  0.18987707  0.71340856     0.43700
C705        C  0.59696964  0.15450604  0.92214752    -0.05400
C706        C  0.57332787  0.16842570  0.90119877    -0.32800
C707        C  0.56341220  0.15799586  0.86246161     0.36400
C708        C  0.57726139  0.13330057  0.84386730    -0.05800
C709        C  0.60091088  0.11945900  0.86484859    -0.32700
C710        C  0.61068056  0.12971607  0.90357768     0.36300
H711        H  0.56237372  0.18740004  0.91493417     0.16700
O712        O  0.54027903  0.17223990  0.84302867    -0.60200
H713        H  0.61191173  0.10046075  0.85124069     0.16700
O714        O  0.63374555  0.11525740  0.92288614    -0.60300
H715        H  0.65192255  0.12627305  0.91483549     0.43700
H716        H  0.54956061  0.18897207  0.82799644     0.43700
C717        C  0.42246369  0.13017427  0.34300019    -0.05400
C718        C  0.40233068  0.11386332  0.36711705    -0.32800
C719        C  0.39256863  0.12441539  0.40571237     0.36400
C720        C  0.40271005  0.15196685  0.42085882    -0.05800
C721        C  0.42296318  0.16821298  0.39677240    -0.32700
C722        C  0.43294877  0.15748079  0.35832664     0.36300
H723        H  0.39398613  0.09283073  0.35593304     0.16700
O724        O  0.37279463  0.10770077  0.42804393    -0.60200
H725        H  0.43105425  0.18939968  0.40770059     0.16700
O726        O  0.45246003  0.17423260  0.33562593    -0.60300
H727        H  0.43980891  0.18612712  0.31666913     0.43700
H728        H  0.35281940  0.11385689  0.41810595     0.43700
C729        C  0.52112180  0.11467823  0.15669389    -0.05400
C730        C  0.51807012  0.11424023  0.11322981    -0.32800
C731        C  0.54093365  0.12435218  0.08767150     0.36400
C732        C  0.56773255  0.13440267  0.10531931    -0.05800
C733        C  0.57185860  0.13272621  0.14845841    -0.32700
C734        C  0.54863399  0.12325036  0.17426114     0.36300
H735        H  0.49725346  0.10759444  0.09892175     0.16700
O736        O  0.53628945  0.12578991  0.04556067    -0.60200
H737        H  0.59233833  0.14070614  0.16237530     0.16700
O738        O  0.55255091  0.12408092  0.21651180    -0.60300
H739        H  0.56013292  0.10420439  0.22404472     0.43700
H740        H  0.54296833  0.10638633  0.03464984     0.43700
C741        C  0.58000911  0.31231904  0.42651206    -0.05400
C742        C  0.56260748  0.29423638  0.40047231    -0.32800
C743        C  0.55145827  0.30500763  0.36260037     0.36400
C744        C  0.55832425  0.33400464  0.34991965    -0.05800
C745        C  0.57448403  0.35241222  0.37675713    -0.32700
C746        C  0.58491085  0.34200812  0.41494489     0.36300
H747        H  0.55820223  0.27149146  0.40898711     0.16700
O748        O  0.53584789  0.28636181  0.33694925    -0.60200
H749        H  0.57963221  0.37490060  0.36767643     0.16700
O750        O  0.60123917  0.36072225  0.43960511    -0.60300
H751        H  0.58643578  0.37072695  0.45761085     0.43700
H752        H  0.51502002  0.28717431  0.34704419     0.43700
C753        C  0.59305414  0.30487090  0.16198234    -0.05400
C754        C  0.59916559  0.27693709  0.17882656    -0.32800
C755        C  0.60944807  0.25386436  0.15381869     0.36400
C756        C  0.61304312  0.25819088  0.11065872    -0.05800
C757        C  0.60833563  0.28654289  0.09408269    -0.32700
C758        C  0.59876496  0.30991891  0.11952197     0.36300
H759        H  0.59497552  0.27263062  0.21142035     0.16700
O760        O  0.61373398  0.22660623  0.17153627    -0.60200
H761        H  0.61121379  0.29039070  0.06111679     0.16700
O762        O  0.59274057  0.33684741  0.10185985    -0.60300
H763        H  0.61184764  0.34778523  0.10291363     0.43700
H764        H  0.63462153  0.22674064  0.18161258     0.43700
C765        C  0.38806586  0.31014063  0.91329220    -0.05400
C766        C  0.40749850  0.29270790  0.88943065    -0.32800
C767        C  0.41853239  0.30302462  0.85137934     0.36400
C768        C  0.40980296  0.33099212  0.83636254    -0.05800
C769        C  0.39001522  0.34815541  0.85983547    -0.32700
C770        C  0.37933916  0.33811623  0.89802092     0.36300
H771        H  0.41460476  0.27124397  0.90062752     0.16700
O772        O  0.43774047  0.28555497  0.82915656    -0.60200
H773        H  0.38306696  0.36973117  0.84881740     0.16700
O774        O  0.36070422  0.35612897  0.92035907    -0.60300
H775        H  0.34032279  0.35092101  0.91095631     0.43700
H776        H  0.42492337  0.27408261  0.80990378     0.43700
C777        C  0.37762263  0.20790971  0.10036600    -0.05400
C778        C  0.37746765  0.21109456  0.14381412    -0.32800
C779        C  0.38654654  0.18800818  0.16980166     0.36400
C780        C  0.39607612  0.16093299  0.15271302    -0.05800
C781        C  0.39409610  0.15682554  0.10949449    -0.32700
C782        C  0.38510708  0.18013128  0.08329818     0.36300
H783        H  0.37130020  0.23199366  0.15785788     0.16700
O784        O  0.38688483  0.19251901  0.21195947    -0.60200
H785        H  0.40100815  0.13604794  0.09579297     0.16700
O786        O  0.38382884  0.17553772  0.04120123    -0.60300
H787        H  0.40471814  0.17700425  0.03148083     0.43700
H788        H  0.36824829  0.18336252  0.22226144     0.43700
C789        C  0.47007015  0.34932120  0.15417451    -0.05400
C790        C  0.44090498  0.34688366  0.16942814    -0.32800
C791        C  0.41767739  0.33730850  0.14351233     0.36400
C792        C  0.42362047  0.32960531  0.10189948    -0.05800
C793        C  0.45254287  0.33313738  0.08637459    -0.32700
C794        C  0.47558498  0.34310032  0.11193100     0.36300
H795        H  0.43622943  0.35172934  0.20173449     0.16700
O796        O  0.38961704  0.33433746  0.15969674    -0.60200
H797        H  0.45757344  0.32729608  0.05448632     0.16700
O798        O  0.50383495  0.34456835  0.09591766    -0.60300
H799        H  0.50549609  0.36468835  0.08397104     0.43700
H800        H  0.38846530  0.31357177  0.16945613     0.43700
C801        C  0.59123806  0.65840755  0.11131669    -0.05400
C802        C  0.60400897  0.63280238  0.12851577    -0.32800
C803        C  0.59457801  0.62179570  0.16688774     0.36400
C804        C  0.57154174  0.63607939  0.18885254    -0.05800
C805        C  0.55874938  0.66175295  0.17189480    -0.32700
C806        C  0.56876604  0.67322288  0.13383307     0.36300
H807        H  0.62152082  0.62115732  0.11216022     0.16700
O808        O  0.60801950  0.59687866  0.18244592    -0.60200
H809        H  0.54125417  0.67324656  0.18849676     0.16700
O810        O  0.55601579  0.69858423  0.11868878    -0.60300
H811        H  0.56848285  0.71490037  0.12975227     0.43700
H812        H  0.59505607  0.58024379  0.17375688     0.43700
C813        C  0.54364547  0.51430690  0.27249519    -0.05400
C814        C  0.57030874  0.50072528  0.26002236    -0.32800
C815        C  0.57094800  0.47071588  0.24904948     0.36400
C816        C  0.54467288  0.45368449  0.25115971    -0.05800
C817        C  0.51807669  0.46746981  0.26367456    -0.32700
C818        C  0.51739715  0.49747300  0.27406158     0.36300
H819        H  0.59070139  0.51347680  0.25854450     0.16700
O820        O  0.59750053  0.45819193  0.23751951    -0.60200
H821        H  0.49764500  0.45486948  0.26599246     0.16700
O822        O  0.49130924  0.50970219  0.28803398    -0.60300
H823        H  0.47996549  0.51494455  0.26260763     0.43700
H824        H  0.59899443  0.46166867  0.20719159     0.43700
C825        C  0.40359169  0.66462840  0.60626844    -0.05400
C826        C  0.42572394  0.64267217  0.60425144    -0.32800
C827        C  0.43660707  0.62930683  0.64057373     0.36400
C828        C  0.42437123  0.63693460  0.67931048    -0.05800
C829        C  0.40187476  0.65844938  0.68119959    -0.32700
C830        C  0.39193145  0.67271894  0.64518206     0.36300
H831        H  0.43482759  0.63611987  0.57448175     0.16700
O832        O  0.45821777  0.60796560  0.63773060    -0.60200
H833        H  0.39232353  0.66460785  0.71087291     0.16700
O834        O  0.36986317  0.69358939  0.64815609    -0.60300
H835        H  0.38033990  0.71237764  0.65443575     0.43700
H836        H  0.47738352  0.61885034  0.63909002     0.43700
C837        C  0.42601365  0.66327104  0.41157794    -0.05400
C838        C  0.44483170  0.68156795  0.38831111    -0.32800
C839        C  0.46615495  0.66951973  0.36160406     0.36400
C840        C  0.46964968  0.63855469  0.35872055    -0.05800
C841        C  0.45023644  0.62024625  0.38131078    -0.32700
C842        C  0.42833065  0.63239219  0.40720699     0.36300
H843        H  0.44316396  0.70539531  0.39108301     0.16700
O844        O  0.48423094  0.68834880  0.33982983    -0.60200
H845        H  0.45253873  0.59642641  0.37983028     0.16700
O846        O  0.41071894  0.61388048  0.43023490    -0.60300
H847        H  0.39301142  0.61000902  0.41257190     0.43700
H848        H  0.47425695  0.69097352  0.31254296     0.43700
C849        C  0.58117616  0.79741962  0.60869043    -0.05400
C850        C  0.59605363  0.79073982  0.64583440    -0.32800
C851        C  0.58777122  0.80424852  0.68319730     0.36400
C852        C  0.56331184  0.82384661  0.68427270    -0.05800
C853        C  0.54788867  0.82993892  0.64718944    -0.32700
C854        C  0.55705206  0.81736643  0.60943131     0.36300
H855        H  0.61488996  0.77573848  0.64567471     0.16700
O856        O  0.60343019  0.79765026  0.71865334    -0.60200
H857        H  0.52912852  0.84502162  0.64729810     0.16700
O858        O  0.54182972  0.82412184  0.57365067    -0.60300
H859        H  0.55152669  0.84219454  0.56275512     0.43700
H860        H  0.62103607  0.81087177  0.71814863     0.43700
C861        C  0.61078421  0.67853226  0.45799334    -0.05400
C862        C  0.62930316  0.67093574  0.42446139    -0.32800
C863        C  0.62065792  0.64927268  0.39600442     0.36400
C864        C  0.59350106  0.63437652  0.40139728    -0.05800
C865        C  0.57719973  0.63882462  0.43801777    -0.32700
C866        C  0.58543557  0.66109171  0.46606649     0.36300
H867        H  0.64919455  0.68365564  0.41800123     0.16700
O868        O  0.63749336  0.64483249  0.36104284    -0.60200
H869        H  0.55628140  0.62737350  0.44266603     0.16700
O870        O  0.56718358  0.66722391  0.49909336    -0.60300
H871        H  0.55060898  0.67915643  0.48741461     0.43700
H872        H  0.64965889  0.62704106  0.36710290     0.43700
C873        C  0.39500277  0.80118705  0.11010524    -0.05400
C874        C  0.37708095  0.81958993  0.13473371    -0.32800
C875        C  0.38697338  0.82998312  0.17327514     0.36400
C876        C  0.41552210  0.82228175  0.18817976    -0.05800
C877        C  0.43325127  0.80312946  0.16424049    -0.32700
C878        C  0.42310617  0.79240589  0.12563055     0.36300
H879        H  0.35531893  0.82647234  0.12376094     0.16700
O880        O  0.36868925  0.84836562  0.19559882    -0.60200
H881        H  0.45511124  0.79664090  0.17530021     0.16700
O882        O  0.44107876  0.77386140  0.10312522    -0.60300
H883        H  0.45316032  0.78702587  0.08526940     0.43700
H884        H  0.37339829  0.86857805  0.18576714     0.43700
C885        C  0.44373378  0.94969101  0.26396656    -0.05400
C886        C  0.47062060  0.96464309  0.25695769    -0.32800
C887        C  0.47086870  0.99476323  0.24683351     0.36400
C888        C  0.44385255  0.01052562  0.24272331    -0.05800
C889        C  0.41689289  0.99529328  0.24805917    -0.32700
C890        C  0.41668828  0.96526530  0.25916899     0.36300
H891        H  0.49164728  0.95310236  0.26032418     0.16700
O892        O  0.49775644  0.00861814  0.24159187    -0.60200
H893        H  0.39588992  0.00689162  0.24484949     0.16700
O894        O  0.38990066  0.95123223  0.26442094    -0.60300
H895        H  0.38394413  0.95564329  0.29340721     0.43700
H896        H  0.50160462  0.00790515  0.21126864     0.43700
C897        C  0.39858846  0.83096928  0.40034252    -0.05400
C898        C  0.37022369  0.81856600  0.39480086    -0.32800
C899        C  0.35974818  0.79672718  0.42186026     0.36400
C900        C  0.37796105  0.78675916  0.45480130    -0.05800
C901        C  0.40440669  0.80212529  0.46362608    -0.32700
C902        C  0.41467013  0.82432263  0.43686386     0.36300
H903        H  0.35707462  0.82412723  0.36761209     0.16700
O904        O  0.33246799  0.78409843  0.41438370    -0.60200
H905        H  0.41852317  0.79521595  0.48919949     0.16700
O906        O  0.44210907  0.83662444  0.44404542    -0.60300
H907        H  0.43867987  0.85200882  0.46548758     0.43700
H908        H  0.33552527  0.77056872  0.39049102     0.43700
C909        C  0.52101465  0.82451843  0.35174322    -0.05400
C910        C  0.54134000  0.84317274  0.37230667    -0.32800
C911        C  0.56250284  0.83169543  0.40009252     0.36400
C912        C  0.56334324  0.80111309  0.40818554    -0.05800
C913        C  0.54408886  0.78233595  0.38608489    -0.32700
C914        C  0.52336625  0.79369747  0.35772308     0.36300
H915        H  0.54008517  0.86690646  0.36816193     0.16700
O916        O  0.58073602  0.85080105  0.42130420    -0.60200
H917        H  0.54468178  0.75868084  0.39137210     0.16700
O918        O  0.50447990  0.77449441  0.33783941    -0.60300
H919        H  0.51522234  0.76836038  0.31236200     0.43700
H920        H  0.59831122  0.85356470  0.40310788     0.43700
C921        C  0.93120668  0.63802597  0.85702799    -0.05400
C922        C  0.93775623  0.66707942  0.86954107    -0.32800
C923        C  0.92469078  0.67919734  0.90535438     0.36400
C924        C  0.90534978  0.66188159  0.92983892    -0.05800
C925        C  0.89967766  0.63257207  0.91782489    -0.32700
C926        C  0.91211443  0.62075811  0.88169961     0.36300
H927        H  0.95221355  0.68076974  0.85074819     0.16700
O928        O  0.93115676  0.70782382  0.91614940    -0.60200
H929        H  0.88511210  0.61871245  0.93619693     0.16700
O930        O  0.90590967  0.59200517  0.87123654    -0.60300
H931        H  0.88620288  0.59267075  0.85726926     0.43700
H932        H  0.91648845  0.72009231  0.90079717     0.43700
C933        C  0.88964165  0.81107020  0.42553804    -0.05400
C934        C  0.91108085  0.79503068  0.40310204    -0.32800
C935        C  0.92230612  0.80564130  0.36528467     0.36400
C936        C  0.91168050  0.83249114  0.34863396    -0.05800
C937        C  0.89014729  0.84846856  0.37096773    -0.32700
C938        C  0.87925962  0.83812236  0.40906207     0.36300
H939        H  0.91946115  0.77424552  0.41509508     0.16700
O940        O  0.94302896  0.78910767  0.34436746    -0.60200
H941        H  0.88175892  0.86926008  0.35897559     0.16700
O942        O  0.85861128  0.85480953  0.42994034    -0.60300
H943        H  0.83912934  0.84935621  0.41756415     0.43700
H944        H  0.96252174  0.79515537  0.35615497     0.43700
C945        C  0.76989592  0.78055180  0.52113276    -0.05400
C946        C  0.75126391  0.78864587  0.55414748    -0.32800
C947        C  0.72025467  0.78714204  0.55010009     0.36400
C948        C  0.70732794  0.77853900  0.51199544    -0.05800
C949        C  0.72600034  0.77155304  0.47842013    -0.32700
C950        C  0.75706367  0.77207954  0.48295400     0.36300
H951        H  0.76078549  0.79527094  0.58369365     0.16700
O952        O  0.70281270  0.79445533  0.58349595    -0.60200
H953        H  0.71652104  0.76483796  0.44888763     0.16700
O954        O  0.77467254  0.76510776  0.44957927    -0.60300
H955        H  0.77512180  0.74319012  0.44867684     0.43700
H956        H  0.70151294  0.77615134  0.60033277     0.43700
C957        C  0.88541074  0.70387352  0.60461479    -0.05400
C958        C  0.87558106  0.70162100  0.64598955    -0.32800
C959        C  0.88757412  0.68052370  0.67307324     0.36400
C960        C  0.90977046  0.66096310  0.65914723    -0.05800
C961        C  0.91846054  0.66190675  0.61726702    -0.32700
C962        C  0.90663822  0.68328501  0.59010901     0.36300
H963        H  0.85912087  0.71691812  0.65796133     0.16700
O964        O  0.87779351  0.67958233  0.71339659    -0.60200
H965        H  0.93550152  0.64694850  0.60602708     0.16700
O966        O  0.91648536  0.68420421  0.54983650    -0.60300
H967        H  0.93555400  0.69524128  0.55091192     0.43700
H968        H  0.86112103  0.66521111  0.71327656     0.43700
C969        C  0.08730224  0.81040364  0.92820741    -0.05400
C970        C  0.09829360  0.83673122  0.91101893    -0.32800
C971        C  0.08747053  0.84731443  0.87304842     0.36400
C972        C  0.06542435  0.83140404  0.85127075    -0.05800
C973        C  0.05360557  0.80567890  0.86907379    -0.32700
C974        C  0.06432390  0.79514548  0.90724183     0.36300
H975        H  0.11548302  0.84918459  0.92695296     0.16700
O976        O  0.09841433  0.87341382  0.85771076    -0.60200
H977        H  0.03635808  0.79339751  0.85300408     0.16700
O978        O  0.05223437  0.76987302  0.92355340    -0.60300
H979        H  0.03544131  0.77669727  0.94108017     0.43700
H980        H  0.08642495  0.88910573  0.87126921     0.43700
C981        C  0.95770301  0.85211362  0.67208719    -0.05400
C982        C  0.93435801  0.83503782  0.68838466    -0.32800
C983        C  0.91152494  0.82450556  0.66254712     0.36400
C984        C  0.91222950  0.83048103  0.61962932    -0.05800
C985        C  0.93440487  0.84903971  0.60382713    -0.32700
C986        C  0.95682733  0.86012430  0.62967108     0.36300
H987        H  0.93454194  0.82859398  0.72080185     0.16700
O988        O  0.89029183  0.80612273  0.67885266    -0.60200
H989        H  0.93500874  0.85408185  0.57091769     0.16700
O990        O  0.97843706  0.87774619  0.61262837    -0.60300
H991        H  0.99286096  0.86392057  0.59969207     0.43700
H992        H  0.87432065  0.81945466  0.68890013     0.43700
C993        C  0.06691224  0.63321678  0.34984168    -0.05400
C994        C  0.05535443  0.65977930  0.36572810    -0.32800
C995        C  0.06698732  0.67223677  0.40226530     0.36400
C996        C  0.09032201  0.65789972  0.42374784    -0.05800
C997        C  0.10112100  0.63087496  0.40845204    -0.32700
C998        C  0.08973551  0.61861174  0.37187393     0.36300
H999        H  0.03786648  0.67137459  0.34913580     0.16700
O1000       O  0.05556817  0.69852506  0.41633368    -0.60200
H1001       H  0.11882433  0.61929692  0.42461738     0.16700
O1002       O  0.10136855  0.59242792  0.35773293    -0.60300
H1003       H  0.08810599  0.57687625  0.36898013     0.43700
H1004       H  0.04070517  0.69300608  0.43768624     0.43700
C1005       C  0.21655654  0.68620558  0.51685672    -0.05400
C1006       C  0.23502001  0.68086201  0.55128866    -0.32800
C1007       C  0.26604156  0.68171526  0.54748615     0.36400
C1008       C  0.27916345  0.68770349  0.50867897    -0.05800
C1009       C  0.26075172  0.69154362  0.47375328    -0.32700
C1010       C  0.22964879  0.69111621  0.47768995     0.36300
H1011       H  0.22537102  0.67677234  0.58156464     0.16700
O1012       O  0.28332412  0.67689953  0.58204124    -0.60200
H1013       H  0.27045776  0.69581967  0.44355938     0.16700
O1014       O  0.21227654  0.69480844  0.44294136    -0.60300
H1015       H  0.21099711  0.71647299  0.43877062     0.43700
H1016       H  0.28747110  0.65536569  0.58202173     0.43700
C1017       C  0.09294699  0.76716900  0.58456807    -0.05400
C1018       C  0.11280388  0.78730491  0.60317744    -0.32800
C1019       C  0.10287607  0.80772853  0.63288807     0.36400
C1020       C  0.07286120  0.80775376  0.64510500    -0.05800
C1021       C  0.05267390  0.78896231  0.62480078    -0.32700
C1022       C  0.06238172  0.76900140  0.59446650     0.36300
H1023       H  0.13635880  0.78633423  0.59611627     0.16700
O1024       O  0.12311015  0.82584889  0.65215874    -0.60200
H1025       H  0.02928658  0.78936070  0.63307861     0.16700
O1026       O  0.04194047  0.75063226  0.57601474    -0.60300
H1027       H  0.03936908  0.73393115  0.59567338     0.43700
H1028       H  0.12284206  0.84442352  0.63585490     0.43700
C1029       C  0.08285744  0.64417008  0.62813203    -0.05400
C1030       C  0.07815437  0.65923066  0.66579704    -0.32800
C1031       C  0.05608142  0.64991930  0.69360078     0.36400
C1032       C  0.03862843  0.62490890  0.68414851    -0.05800
C1033       C  0.04507127  0.60856240  0.64814274    -0.32700
C1034       C  0.06658076  0.61819766  0.61997845     0.36300
H1035       H  0.09013781  0.67948414  0.67241021     0.16700
O1036       O  0.05003791  0.66695888  0.72781755    -0.60200
H1037       H  0.03214308  0.58909586  0.64039679     0.16700
O1038       O  0.07065491  0.60264444  0.58380699    -0.60300
H1039       H  0.05423694  0.60902371  0.56514925     0.43700
H1040       H  0.06288046  0.65890051  0.75020082     0.43700
C1041       C  0.91475570  0.33929859  0.66654756    -0.05400
C1042       C  0.92693676  0.31322873  0.65008015    -0.32800
C1043       C  0.91662342  0.30162279  0.61233948     0.36400
C1044       C  0.89403656  0.31638976  0.58999631    -0.05800
C1045       C  0.88264691  0.34307342  0.60577734    -0.32700
C1046       C  0.89264679  0.35444033  0.64376012     0.36300
H1047       H  0.94404393  0.30133675  0.66701533     0.16700
O1048       O  0.92905650  0.27603281  0.59745929    -0.60200
H1049       H  0.86565999  0.35514031  0.58883378     0.16700
O1050       O  0.88111764  0.38070680  0.65779096    -0.60300
H1051       H  0.86203961  0.37544791  0.67135753     0.43700
H1052       H  0.91866984  0.25985296  0.61231210     0.43700
C1053       C  0.95092625  0.51798504  0.75648776    -0.05400
C1054       C  0.92264130  0.50504823  0.76030647    -0.32800
C1055       C  0.91959381  0.47453852  0.76646038     0.36400
C1056       C  0.94506155  0.45635701  0.76782579    -0.05800
C1057       C  0.97327915  0.46918431  0.76295920    -0.32700
C1058       C  0.97637263  0.49973344  0.75778829     0.36300
H1059       H  0.90280826  0.51868559  0.75909127     0.16700
O1060       O  0.89160488  0.46261748  0.76954037    -0.60200
H1061       H  0.99311138  0.45551434  0.76362661     0.16700
O1062       O  0.00430740  0.51133977  0.75241834    -0.60300
H1063       H  0.01245828  0.51383437  0.78085755     0.43700
H1064       H  0.88569391  0.46563039  0.79888876     0.43700
C1065       C  0.90023522  0.16002958  0.08999081    -0.05400
C1066       C  0.92418755  0.17331290  0.11103855    -0.32800
C1067       C  0.93544332  0.16115110  0.14801249     0.36400
C1068       C  0.92214175  0.13575930  0.16537713    -0.05800
C1069       C  0.89860759  0.12213908  0.14378465    -0.32700
C1070       C  0.88782213  0.13388856  0.10636048     0.36300
H1071       H  0.93431611  0.19318894  0.09874360     0.16700
O1072       O  0.95862456  0.17505202  0.16775747    -0.60200
H1073       H  0.88818253  0.10247061  0.15625103     0.16700
O1074       O  0.86467511  0.11991595  0.08656635    -0.60300
H1075       H  0.84643310  0.12984702  0.09680267     0.43700
H1076       H  0.97688795  0.16601883  0.15590751     0.43700
C1077       C  0.77795904  0.18653582  0.00017608    -0.05400
C1078       C  0.75786427  0.18788416  0.96676195    -0.32800
C1079       C  0.72707819  0.18694789  0.97375842     0.36400
C1080       C  0.71610765  0.18360817  0.01446346    -0.05800
C1081       C  0.73623443  0.18092814  0.04761148    -0.32700
C1082       C  0.76695358  0.18287552  0.04078766     0.36300
H1083       H  0.76601513  0.19051418  0.93531999     0.16700
O1084       O  0.70790545  0.18840390  0.94054423    -0.60200
H1085       H  0.72810311  0.17815890  0.07904050     0.16700
O1086       O  0.78611824  0.18027807  0.07385405    -0.60300
H1087       H  0.78683261  0.20023246  0.08661943     0.43700
H1088       H  0.70528066  0.20978817  0.93491856     0.43700
C1089       C  0.87300810  0.27994303  0.92819220    -0.05400
C1090       C  0.85711970  0.28495239  0.89117150    -0.32800
C1091       C  0.86463619  0.30831684  0.86488609     0.36400
C1092       C  0.88859088  0.32699625  0.87524530    -0.05800
C1093       C  0.90189989  0.32436829  0.91464142    -0.32700
C1094       C  0.89425476  0.30100678  0.94114200     0.36300
H1095       H  0.84007080  0.26956759  0.88113439     0.16700
O1096       O  0.85007719  0.31108232  0.82755181    -0.60200
H1097       H  0.92017267  0.33874076  0.92337811     0.16700
O1098       O  0.90983421  0.29740123  0.97748952    -0.60300
H1099       H  0.89733740  0.30681202  0.99914422     0.43700
H1100       H  0.83653354  0.32822899  0.83106906     0.43700
C1101       C  0.07200392  0.13417451  0.67222022    -0.05400
C1102       C  0.06637321  0.16379926  0.66151922    -0.32800
C1103       C  0.07735783  0.17580493  0.62429200     0.36400
C1104       C  0.09415245  0.15806713  0.59683495    -0.05800
C1105       C  0.09930299  0.12836264  0.60739248    -0.32700
C1106       C  0.08844716  0.11642590  0.64444802     0.36300
H1107       H  0.05395035  0.17790590  0.68247289     0.16700
O1108       O  0.07182558  0.20495085  0.61544462    -0.60200
H1109       H  0.11202523  0.11418964  0.58688137     0.16700
O1110       O  0.09433628  0.08732724  0.65324498    -0.60300
H1111       H  0.07633465  0.07638710  0.64418275     0.43700
H1112       H  0.05264065  0.20500527  0.60014732     0.43700
C1113       C  0.04168846  0.95044105  0.75797901    -0.05400
C1114       C  0.06948149  0.96460626  0.75806259    -0.32800
C1115       C  0.07172376  0.99489432  0.76656064     0.36400
C1116       C  0.04577443  0.01173433  0.77374888    -0.05800
C1117       C  0.01801071  0.99750546  0.77363167    -0.32700
C1118       C  0.01584679  0.96713569  0.76619558     0.36300
H1119       H  0.08961341  0.95208793  0.75211245     0.16700
O1120       O  0.09931809  0.00787068  0.76667764    -0.60200
H1121       H  0.99780708  0.00995888  0.77936185     0.16700
O1122       O  0.98828414  0.95409355  0.76671634    -0.60300
H1123       H  0.98089372  0.95538000  0.73768616     0.43700
H1124       H  0.10709575  0.00494936  0.79524349     0.43700
C1125       C  0.92971224  0.15326506  0.90656915    -0.05400
C1126       C  0.92336641  0.14275498  0.86641075    -0.32800
C1127       C  0.94602828  0.13053914  0.84163879     0.36400
C1128       C  0.97537049  0.12857327  0.85715803    -0.05800
C1129       C  0.98115332  0.13775909  0.89807070    -0.32700
C1130       C  0.95874165  0.14991861  0.92263101     0.36300
H1131       H  0.90107293  0.14481642  0.85378188     0.16700
O1132       O  0.93932410  0.12102026  0.80226802    -0.60200
H1133       H  0.00340012  0.13616492  0.91096885     0.16700
O1134       O  0.96562377  0.15875278  0.96232338    -0.60300
H1135       H  0.95895416  0.14234094  0.98048212     0.43700
H1136       H  0.93530281  0.09953581  0.80513757     0.43700
C1137       C  0.08261229  0.30798573  0.08991433    -0.05400
C1138       C  0.09032012  0.33702795  0.10114796    -0.32800
C1139       C  0.08201425  0.34880311  0.13958574     0.36400
C1140       C  0.06543540  0.33161658  0.16773687    -0.05800
C1141       C  0.05645921  0.30307609  0.15582805    -0.32700
C1142       C  0.06495850  0.29119058  0.11732011     0.36300
H1143       H  0.10359935  0.35053170  0.08049304     0.16700
O1144       O  0.09070903  0.37701029  0.14949520    -0.60200
H1145       H  0.04351538  0.28958215  0.17690531     0.16700
O1146       O  0.05643916  0.26296394  0.10729599    -0.60300
H1147       H  0.03595526  0.26491302  0.09598153     0.43700
H1148       H  0.07344054  0.38972881  0.14222635     0.43700
C1149       C  0.27097054  0.28696827  0.02074711    -0.05400
C1150       C  0.25486232  0.26185715  0.03254572    -0.32800
C1151       C  0.22410998  0.26026111  0.02623203     0.36400
C1152       C  0.20885661  0.28381269  0.00677056    -0.05800
C1153       C  0.22497554  0.30917527  0.99533016    -0.32700
C1154       C  0.25577347  0.31102852  0.00274273     0.36300
H1155       H  0.26625078  0.24317319  0.04647401     0.16700
O1156       O  0.20950302  0.23485203  0.03729327    -0.60200
H1157       H  0.21373121  0.32752645  0.98038876     0.16700
O1158       O  0.27104948  0.33561030  0.98992088    -0.60300
H1159       H  0.26982998  0.34968492  0.01350328     0.43700
H1160       H  0.20494929  0.23723256  0.06725030     0.43700
C1161       C  0.10451344  0.14765065  0.86782705    -0.05400
C1162       C  0.12276795  0.17031753  0.85295668    -0.32800
C1163       C  0.13086959  0.19391081  0.87860373     0.36400
C1164       C  0.12065066  0.19505505  0.92006709    -0.05800
C1165       C  0.10492360  0.17076160  0.93606417    -0.32700
C1166       C  0.09672080  0.14716794  0.91018557     0.36300
H1167       H  0.12893293  0.17089158  0.82042300     0.16700
O1168       O  0.14707675  0.21664248  0.86185460    -0.60200
H1169       H  0.09700529  0.17103361  0.96783302     0.16700
O1170       O  0.07867386  0.12532262  0.92558348    -0.60300
H1171       H  0.05825152  0.13373878  0.92502076     0.43700
H1172       H  0.13234105  0.22918179  0.84702512     0.43700
C1173       C  0.01565919  0.33251811  0.84001892    -0.05400
C1174       C  0.01688067  0.30203682  0.84803573    -0.32800
C1175       C  0.03832762  0.29027620  0.87505815     0.36400
C1176       C  0.05965069  0.30894443  0.89384200    -0.05800
C1177       C  0.05940811  0.33917940  0.88419025    -0.32700
C1178       C  0.03743669  0.35107867  0.85802278     0.36300
H1179       H  0.00040896  0.28732495  0.83464793     0.16700
O1180       O  0.03835475  0.26042386  0.88261677    -0.60200
H1181       H  0.07560889  0.35387331  0.89823307     0.16700
O1182       O  0.03734809  0.38093715  0.85061753    -0.60300
H1183       H  0.02653002  0.38976722  0.87441082     0.43700
H1184       H  0.02279563  0.25730891  0.90398462     0.43700
loop_ 
_geom_bond_atom_site_label_1 
_geom_bond_atom_site_label_2 
_geom_bond_distance 
_geom_bond_site_symmetry_2 
_ccdc_geom_bond_type 
In1           O3   2.216       .  S
In1           O4   2.250       .  S
In1          O12   2.227   1_556  S
In1           O6   2.263       .  S
In1           O8   2.262       .  S
In1           O9   2.264   1_556  S
In1          O10   2.229       .  S
In1          O13   2.227   1_556  S
C2            O8   1.266       .  A
C2           O10   1.260       .  A
C2         C1176   1.482       .  S
O3           C11   1.263       .  A
O4           C11   1.268       .  A
C5           O12   1.261   1_556  A
C5            O6   1.266       .  A
C5         C1152   1.484   1_556  S
C7            O9   1.265       .  A
C7           O13   1.260       .  A
C7         C1137   1.484       .  S
C11        C1164   1.482       .  S
In14         O16   2.236       .  S
In14         O17   2.270       .  S
In14         O25   2.238       .  S
In14         O19   2.242       .  S
In14         O21   2.255       .  S
In14         O22   2.273       .  S
In14         O23   2.222       .  S
In14         O26   2.223       .  S
C15          O21   1.262       .  A
C15          O23   1.259       .  A
C15        C1161   1.469       .  S
O16          C24   1.260       .  A
O17          C24   1.264       .  A
C18          O25   1.262       .  A
C18          O19   1.261       .  A
C18        C1116   1.479       .  S
C20          O22   1.266       .  A
C20          O26   1.257       .  A
C20        C1128   1.481   1_455  S
C24        C1101   1.486       .  S
In27         O29   2.229       .  S
In27         O30   2.265       .  S
In27         O38   2.233   1_556  S
In27         O32   2.251       .  S
In27         O34   2.274       .  S
In27         O35   2.254   1_556  S
In27         O36   2.215       .  S
In27         O39   2.234   1_556  S
C28          O34   1.264       .  A
C28          O36   1.258       .  A
C28        C1125   1.478       .  S
O29          C37   1.259       .  A
O30          C37   1.263       .  A
C31          O38   1.262   1_556  A
C31          O32   1.264       .  A
C31        C1077   1.475   1_556  S
C33          O35   1.266       .  A
C33          O39   1.263       .  A
C33        C1065   1.484       .  S
C37        C1089   1.482       .  S
In40         O42   2.237       .  S
In40         O43   2.251       .  S
In40         O51   2.228       .  S
In40         O45   2.241       .  S
In40         O47   2.257       .  S
In40         O48   2.253       .  S
In40         O49   2.236       .  S
In40         O52   2.239       .  S
C41          O47   1.259       .  A
C41          O49   1.258       .  A
C41        C1092   1.476       .  S
O42          C50   1.259       .  A
O43          C50   1.263       .  A
C44          O51   1.262       .  A
C44          O45   1.263       .  A
C44        C1056   1.476       .  S
C46          O48   1.263       .  A
C46          O52   1.260       .  A
C46        C1173   1.483   1_655  S
C50        C1041   1.479       .  S
In53         O55   2.249       .  S
In53         O56   2.244       .  S
In53         O64   2.250       .  S
In53         O58   2.248       .  S
In53         O60   2.258       .  S
In53         O61   2.254       .  S
In53         O62   2.238       .  S
In53         O65   2.227       .  S
C54          O60   1.259       .  A
C54          O62   1.257       .  A
C54        C1029   1.478       .  S
O55          C63   1.261       .  A
O56          C63   1.261       .  A
C57          O64   1.261       .  A
C57          O58   1.261       .  A
C57        C1005   1.479       .  S
C59          O61   1.264       .  A
C59          O65   1.261       .  A
C59         C996   1.481       .  S
C63        C1017   1.483       .  S
In66         O68   2.238       .  S
In66         O69   2.256       .  S
In66         O77   2.227       .  S
In66         O71   2.243       .  S
In66         O73   2.261       .  S
In66         O74   2.249   1_455  S
In66         O75   2.230       .  S
In66         O78   2.216       .  S
C67          O73   1.263       .  A
C67          O75   1.259       .  A
C67        C1020   1.475       .  S
O68          C76   1.259       .  A
O69          C76   1.263       .  A
C70          O77   1.262       .  A
C70          O71   1.264       .  A
C70        C1113   1.476       .  S
C72          O74   1.267       .  A
C72          O78   1.261   1_655  A
C72         C981   1.481       .  S
C76         C972   1.477       .  S
In79         O81   2.235       .  S
In79         O82   2.282       .  S
In79         O90   2.249       .  S
In79         O84   2.245       .  S
In79         O86   2.257       .  S
In79         O87   2.249       .  S
In79         O88   2.234       .  S
In79         O91   2.240       .  S
C80          O86   1.260       .  A
C80          O88   1.258       .  A
C80         C984   1.472       .  S
O81          C89   1.257       .  A
O82          C89   1.264       .  A
C83          O90   1.261       .  A
C83          O84   1.261       .  A
C83         C945   1.477       .  S
C85          O87   1.267       .  A
C85          O91   1.264       .  A
C85         C933   1.487       .  S
C89         C957   1.489       .  S
In92         O94   2.225       .  S
In92         O95   2.261       .  S
In92        O103   2.246       .  S
In92         O97   2.247       .  S
In92         O99   2.270       .  S
In92        O100   2.266   1_655  S
In92        O101   2.252       .  S
In92        O104   2.216       .  S
C93          O99   1.258       .  A
C93         O101   1.256       .  A
C93         C960   1.479       .  S
O94         C102   1.262       .  A
O95         C102   1.266       .  A
C96         O103   1.262       .  A
C96          O97   1.263       .  A
C96        C1053   1.479       .  S
C98         O100   1.264       .  A
C98         O104   1.258   1_455  A
C98        C1032   1.479       .  S
C102        C921   1.479       .  S
In105       O107   2.228       .  S
In105       O108   2.277       .  S
In105       O116   2.261       .  S
In105       O110   2.261       .  S
In105       O112   2.267       .  S
In105       O113   2.249       .  S
In105       O114   2.240       .  S
In105       O117   2.248       .  S
C106        O112   1.260       .  A
C106        O114   1.258       .  A
C106        C897   1.480       .  S
O107        C115   1.258       .  A
O108        C115   1.264       .  A
C109        O116   1.260       .  A
C109        O110   1.259       .  A
C109        C885   1.485       .  S
C111        O113   1.263       .  A
C111        O117   1.263       .  A
C111        C909   1.485       .  S
C115        C876   1.486       .  S
In118       O120   2.220       .  S
In118       O121   2.260       .  S
In118       O129   2.243       .  S
In118       O123   2.255       .  S
In118       O125   2.257       .  S
In118       O126   2.247       .  S
In118       O127   2.231       .  S
In118       O130   2.239       .  S
C119        O125   1.264       .  A
C119        O127   1.260       .  A
C119        C912   1.480       .  S
O120        C128   1.258       .  A
O121        C128   1.264       .  A
C122        O129   1.259       .  A
C122        O123   1.261       .  A
C122        C948   1.479       .  S
C124        O126   1.265       .  A
C124        O130   1.261       .  A
C124        C849   1.476       .  S
C128        C861   1.478       .  S
In131       O133   2.232       .  S
In131       O134   2.260       .  S
In131       O142   2.236       .  S
In131       O136   2.254       .  S
In131       O138   2.250       .  S
In131       O139   2.251       .  S
In131       O140   2.234       .  S
In131       O143   2.241       .  S
C132        O138   1.263       .  A
C132        O140   1.260       .  A
C132        C837   1.475       .  S
O133        C141   1.259       .  A
O134        C141   1.264       .  A
C135        O142   1.260       .  A
C135        O136   1.262       .  A
C135       C1008   1.478       .  S
C137        O139   1.264       .  A
C137        O143   1.260       .  A
C137        C825   1.476       .  S
C141        C900   1.482       .  S
In144       O146   2.269       .  S
In144       O147   2.229       .  S
In144       O155   2.244       .  S
In144       O149   2.238       .  S
In144       O151   2.255       .  S
In144       O152   2.237       .  S
In144       O153   2.230       .  S
In144       O156   2.254       .  S
C145        O151   1.258       .  A
C145        O153   1.258       .  A
C145        C864   1.470       .  S
O146        C154   1.263       .  A
O147        C154   1.259       .  A
C148        O155   1.263       .  A
C148        O149   1.260       .  A
C148        C813   1.474       .  S
C150        O152   1.262       .  A
C150        O156   1.263       .  A
C150        C840   1.484       .  S
C154        C804   1.483       .  S
In157       O159   2.224       .  S
In157       O160   2.265       .  S
In157       O168   2.228       .  S
In157       O162   2.261       .  S
In157       O164   2.250       .  S
In157       O165   2.263   1_554  S
In157       O166   2.219       .  S
In157       O169   2.220   1_554  S
C158        O164   1.265       .  A
C158        O166   1.261       .  A
C158        C792   1.475       .  S
O159        C167   1.262       .  A
O160        C167   1.268       .  A
C161        O168   1.259       .  A
C161        O162   1.262       .  A
C161       C1149   1.475       .  S
C163        O165   1.266       .  A
C163        O169   1.259       .  A
C163        C765   1.482       .  S
C167        C777   1.487       .  S
In170       O172   2.223       .  S
In170       O173   2.256       .  S
In170       O181   2.224       .  S
In170       O175   2.259       .  S
In170       O177   2.266       .  S
In170       O178   2.254       .  S
In170       O179   2.223       .  S
In170       O182   2.214       .  S
C171        O177   1.264       .  A
C171        O179   1.259       .  A
C171        C753   1.478       .  S
O172        C180   1.262       .  A
O173        C180   1.264       .  A
C174        O181   1.261       .  A
C174        O175   1.265       .  A
C174        C816   1.483       .  S
C176        O178   1.265       .  A
C176        O182   1.259       .  A
C176        C789   1.476       .  S
C180        C744   1.475       .  S
In183       O185   2.243       .  S
In183       O186   2.250       .  S
In183       O194   2.232       .  S
In183       O188   2.265       .  S
In183       O190   2.280       .  S
In183       O191   2.257       .  S
In183       O192   2.233       .  S
In183       O195   2.222       .  S
C184        O190   1.265       .  A
C184        O192   1.258       .  A
C184        C780   1.484       .  S
O185        C193   1.263       .  A
O186        C193   1.264       .  A
C187        O194   1.260       .  A
C187        O188   1.266       .  A
C187        C888   1.485       .  S
C189        O191   1.265       .  A
C189        O195   1.261       .  A
C189        C729   1.480       .  S
C193        C717   1.483       .  S
In196       O198   2.221       .  S
In196       O199   2.267       .  S
In196       O207   2.230       .  S
In196       O201   2.245       .  S
In196       O203   2.252       .  S
In196       O204   2.254   1_554  S
In196       O205   2.212       .  S
In196       O208   2.219   1_554  S
C197        O203   1.266       .  A
C197        O205   1.261       .  A
C197        C732   1.468       .  S
O198        C206   1.258       .  A
O199        C206   1.266       .  A
C200        O207   1.261       .  A
C200        O201   1.264       .  A
C200       C1080   1.473       .  S
C202        O204   1.268       .  A
C202        O208   1.263       .  A
C202        C705   1.484       .  S
C206        C756   1.482       .  S
In209       O211   2.226       .  S
In209       O212   2.257       .  S
In209       O220   2.232       .  S
In209       O214   2.255       .  S
In209       O216   2.258       .  S
In209       O217   2.246       .  S
In209       O218   2.217       .  S
In209       O221   2.213       .  S
C210        O216   1.265       .  A
C210        O218   1.259       .  A
C210        C681   1.472       .  S
O211        C219   1.259       .  A
O212        C219   1.264       .  A
C213        O220   1.261       .  A
C213        O214   1.264       .  A
C213        C669   1.479       .  S
C215        O217   1.267       .  A
C215        O221   1.263       .  A
C215        C693   1.479       .  S
C219        C741   1.482       .  S
In222       O224   2.248       .  S
In222       O225   2.250       .  S
In222       O233   2.221       .  S
In222       O227   2.254       .  S
In222       O229   2.275       .  S
In222       O230   2.241       .  S
In222       O231   2.223       .  S
In222       O234   2.249       .  S
C223        O229   1.260       .  A
C223        O231   1.255       .  A
C223        C696   1.475       .  S
O224        C232   1.260       .  A
O225        C232   1.263       .  A
C226        O233   1.260       .  A
C226        O227   1.264       .  A
C226        C648   1.476       .  S
C228        O230   1.263       .  A
C228        O234   1.264       .  A
C228        C708   1.484       .  S
C232        C657   1.481       .  S
In235       O237   2.233       .  S
In235       O238   2.251       .  S
In235       O246   2.238       .  S
In235       O240   2.261       .  S
In235       O242   2.246       .  S
In235       O243   2.226       .  S
In235       O244   2.269       .  S
In235       O247   2.248       .  S
C236        O242   1.256       .  A
C236        O244   1.259       .  A
C236        C633   1.483       .  S
O237        C245   1.260       .  A
O238        C245   1.263       .  A
C239        O246   1.260       .  A
C239        O240   1.265       .  A
C239        C621   1.483       .  S
C241        O243   1.262       .  A
C241        O247   1.264       .  A
C241        C768   1.476       .  S
C245        C684   1.478       .  S
In248       O250   2.239       .  S
In248       O251   2.263       .  S
In248       O259   2.230       .  S
In248       O253   2.245       .  S
In248       O255   2.272       .  S
In248       O256   2.261       .  S
In248       O257   2.229       .  S
In248       O260   2.235       .  S
C249        O255   1.262       .  A
C249        O257   1.258       .  A
C249        C660   1.475       .  S
O250        C258   1.260       .  A
O251        C258   1.265       .  A
C252        O259   1.261       .  A
C252        O253   1.264       .  A
C252        C609   1.474       .  S
C254        O256   1.267       .  A
C254        O260   1.261       .  A
C254        C636   1.487       .  S
C258        C720   1.487       .  S
In261       O263   2.241   1_554  S
In261       O264   2.232   1_554  S
In261       O272   2.260       .  S
In261       O266   2.236       .  S
In261       O268   2.226       .  S
In261       O269   2.261       .  S
In261       O270   2.280       .  S
In261       O273   2.222       .  S
C262        O268   1.257       .  A
C262        O270   1.263       .  A
C262        C600   1.477       .  S
O263        C271   1.264       .  A
O264        C271   1.263       .  A
C265        O272   1.264       .  A
C265        O266   1.260       .  A
C265        C573   1.485       .  S
C267        O269   1.263       .  A
C267        O273   1.260       .  A
C267        C588   1.481       .  S
C271        C969   1.480       .  S
In274       O276   2.233       .  S
In274       O277   2.243       .  S
In274       O285   2.236       .  S
In274       O279   2.248       .  S
In274       O281   2.274       .  S
In274       O282   2.258       .  S
In274       O283   2.229       .  S
In274       O286   2.225       .  S
C275        O281   1.259       .  A
C275        O283   1.255       .  A
C275        C585   1.477       .  S
O276        C284   1.260   1_455  A
O277        C284   1.262   1_455  A
C278        O285   1.262       .  A
C278        O279   1.263       .  A
C278        C549   1.478       .  S
C280        O282   1.264       .  A
C280        O286   1.261       .  A
C280        C993   1.478       .  S
C284        C561   1.476       .  S
In287       O289   2.228       .  S
In287       O290   2.267       .  S
In287       O298   2.232       .  S
In287       O292   2.245       .  S
In287       O294   2.265       .  S
In287       O295   2.261       .  S
In287       O296   2.227       .  S
In287       O299   2.239       .  S
C288        O294   1.262       .  A
C288        O296   1.259       .  A
C288        C537   1.471       .  S
O289        C297   1.259       .  A
O290        C297   1.266       .  A
C291        O298   1.262       .  A
C291        O292   1.263       .  A
C291        C525   1.477       .  S
C293        O295   1.266       .  A
C293        O299   1.262       .  A
C293        C936   1.486       .  S
C297        C597   1.486   1_655  S
In300       O302   2.227   1_554  S
In300       O303   2.259   1_554  S
In300       O311   2.243   1_554  S
In300       O305   2.240       .  S
In300       O307   2.262       .  S
In300       O308   2.255       .  S
In300       O309   2.221       .  S
In300       O312   2.225       .  S
C301        O307   1.263       .  A
C301        O309   1.258       .  A
C301        C564   1.471       .  S
O302        C310   1.261       .  A
O303        C310   1.263       .  A
C304        O311   1.262   1_554  A
C304        O305   1.262       .  A
C304        C513   1.474       .  S
C306        O308   1.265       .  A
C306        O312   1.261       .  A
C306        C540   1.482       .  S
C310        C924   1.483       .  S
In313       O315   2.229       .  S
In313       O316   2.260       .  S
In313       O324   2.232       .  S
In313       O318   2.247       .  S
In313       O320   2.262       .  S
In313       O321   2.262       .  S
In313       O322   2.217       .  S
In313       O325   2.223       .  S
C314        O320   1.266       .  A
C314        O322   1.261       .  A
C314        C501   1.479       .  S
O315        C323   1.264       .  A
O316        C323   1.267       .  A
C317        O324   1.261       .  A
C317        O318   1.264       .  A
C317        C612   1.473       .  S
C319        O321   1.266       .  A
C319        O325   1.258       .  A
C319        C489   1.484       .  S
C323       C1104   1.488       .  S
In326       O328   2.229       .  S
In326       O329   2.259   1_455  S
In326       O337   2.226       .  S
In326       O331   2.256       .  S
In326       O333   2.275       .  S
In326       O334   2.248       .  S
In326       O335   2.238       .  S
In326       O338   2.236       .  S
C327        O333   1.261       .  A
C327        O335   1.257       .  A
C327        C492   1.480       .  S
O328        C336   1.259   1_455  A
O329        C336   1.263       .  A
C330        O337   1.260       .  A
C330        O331   1.265       .  A
C330        C552   1.480       .  S
C332        O334   1.264       .  A
C332        O338   1.263       .  A
C332       C1140   1.481       .  S
C336        C480   1.482       .  S
In339       O341   2.221       .  S
In339       O342   2.244       .  S
In339       O350   2.232       .  S
In339       O344   2.244       .  S
In339       O346   2.264       .  S
In339       O347   2.261       .  S
In339       O348   2.220       .  S
In339       O351   2.204       .  S
C340        O346   1.265       .  A
C340        O348   1.259       .  A
C340        C477   1.471       .  S
O341        C349   1.262       .  A
O342        C349   1.267       .  A
C343        O350   1.262       .  A
C343        O344   1.265       .  A
C343        C672   1.477       .  S
C345        O347   1.268       .  A
C345        O351   1.260       .  A
C345        C465   1.479       .  S
C349       C1044   1.480       .  S
In352       O354   2.222       .  S
In352       O355   2.272       .  S
In352       O363   2.230       .  S
In352       O357   2.245       .  S
In352       O359   2.259       .  S
In352       O360   2.257       .  S
In352       O361   2.216       .  S
In352       O364   2.249       .  S
C353        O359   1.264       .  A
C353        O361   1.260       .  A
C353        C468   1.473       .  S
O354        C362   1.258       .  A
O355        C362   1.266       .  A
C356        O363   1.261       .  A
C356        O357   1.263       .  A
C356        C528   1.477       .  S
C358        O360   1.264       .  A
C358        O364   1.262       .  A
C358       C1068   1.487       .  S
C362        C504   1.480   1_655  S
In365       O367   2.236   1_556  S
In365       O368   2.274   1_556  S
In365       O376   2.245   1_556  S
In365       O370   2.255       .  S
In365       O372   2.259       .  S
In365       O373   2.275       .  S
In365       O374   2.243       .  S
In365       O377   2.243       .  S
C366        O372   1.261       .  A
C366        O374   1.259       .  A
C366        C453   1.479       .  S
O367        C375   1.261       .  A
O368        C375   1.265       .  A
C369        O376   1.261   1_556  A
C369        O370   1.262       .  A
C369        C576   1.481   1_556  S
C371        O373   1.264       .  A
C371        O377   1.259       .  A
C371        C441   1.490       .  S
C375        C873   1.488       .  S
In378       O380   2.241   1_556  S
In378       O381   2.270   1_556  S
In378       O389   2.233   1_556  S
In378       O383   2.247       .  S
In378       O385   2.255       .  S
In378       O386   2.237       .  S
In378       O387   2.244       .  S
In378       O390   2.258       .  S
C379        O385   1.258       .  A
C379        O387   1.259       .  A
C379        C429   1.480       .  S
O380        C388   1.261       .  A
O381        C388   1.264       .  A
C382        O389   1.260       .  A
C382        O383   1.261   1_554  A
C382        C516   1.471       .  S
C384        O386   1.262       .  A
C384        O390   1.262       .  A
C384        C417   1.485       .  S
C388        C801   1.488       .  S
In391       O393   2.228       .  S
In391       O394   2.254       .  S
In391       O402   2.237       .  S
In391       O396   2.260       .  S
In391       O398   2.273       .  S
In391       O399   2.255       .  S
In391       O400   2.224       .  S
In391       O403   2.229       .  S
C392        O398   1.266       .  A
C392        O400   1.260       .  A
C392        C444   1.480       .  S
O393        C401   1.262       .  A
O394        C401   1.264       .  A
C395        O402   1.258       .  A
C395        O396   1.263       .  A
C395        C624   1.478       .  S
C397        O399   1.264       .  A
C397        O403   1.260       .  A
C397        C828   1.473       .  S
C401        C432   1.481       .  S
In404       O406   2.224       .  S
In404       O407   2.254       .  S
In404       O415   2.216       .  S
In404       O409   2.265       .  S
In404       O411   2.269       .  S
In404       O412   2.265       .  S
In404       O413   2.209       .  S
In404       O416   2.240       .  S
C405        O411   1.268       .  A
C405        O413   1.262       .  A
C405        C420   1.481       .  S
O406        C414   1.262       .  A
O407        C414   1.267       .  A
C408        O415   1.259       .  A
C408        O409   1.265       .  A
C408        C645   1.478       .  S
C410        O412   1.263       .  A
C410        O416   1.259       .  A
C410        C852   1.482       .  S
C414        C456   1.482       .  S
C417        C418   1.409       .  A
C417        C422   1.410       .  A
C418        C419   1.407       .  A
C418        H423   1.083       .  S
C419        C420   1.409       .  A
C419        O424   1.371       .  S
C420        C421   1.403       .  A
C421        C422   1.396       .  A
C421        H425   1.084       .  S
C422        O426   1.372       .  S
O424        H428   0.992       .  S
O426        H427   0.993       .  S
C429        C430   1.406       .  A
C429        C434   1.409       .  A
C430        C431   1.402       .  A
C430        H435   1.084       .  S
C431        C432   1.410       .  A
C431        O436   1.371       .  S
C432        C433   1.404       .  A
C433        C434   1.397       .  A
C433        H437   1.083       .  S
C434        O438   1.371       .  S
O436        H440   0.991       .  S
O438        H439   0.992       .  S
C441        C442   1.407       .  A
C441        C446   1.413       .  A
C442        C443   1.399       .  A
C442        H447   1.084       .  S
C443        C444   1.409       .  A
C443        O448   1.373       .  S
C444        C445   1.403       .  A
C445        C446   1.406       .  A
C445        H449   1.083       .  S
C446        O450   1.370       .  S
O448        H452   0.992       .  S
O450        H451   0.992       .  S
C453        C454   1.402       .  A
C453        C458   1.410       .  A
C454        C455   1.398       .  A
C454        H459   1.084       .  S
C455        C456   1.413       .  A
C455        O460   1.371       .  S
C456        C457   1.405       .  A
C457        C458   1.403       .  A
C457        H461   1.083       .  S
C458        O462   1.371       .  S
O460        H464   0.992       .  S
O462        H463   0.992       .  S
C465        C466   1.406       .  A
C465        C470   1.411       .  A
C466        C467   1.405       .  A
C466        H471   1.083       .  S
C467        C468   1.410       .  A
C467        O472   1.371       .  S
C468        C469   1.399       .  A
C469        C470   1.393       .  A
C469        H473   1.084       .  S
C470        O474   1.372       .  S
O472        H476   0.991       .  S
O474        H475   0.991       .  S
C477        C478   1.403       .  A
C477        C482   1.405       .  A
C478        C479   1.404       .  A
C478        H483   1.084       .  S
C479        C480   1.412       .  A
C479        O484   1.371       .  S
C480        C481   1.405       .  A
C481        C482   1.397       .  A
C481        H485   1.083       .  S
C482        O486   1.372       .  S
O484        H488   0.992       .  S
O486        H487   0.992       .  S
C489        C490   1.405       .  A
C489        C494   1.414       .  A
C490        C491   1.405       .  A
C490        H495   1.083       .  S
C491        C492   1.410       .  A
C491        O496   1.371       .  S
C492        C493   1.402       .  A
C493        C494   1.399       .  A
C493        H497   1.084       .  S
C494        O498   1.373       .  S
O496        H500   0.993       .  S
O498        H499   0.991       .  S
C501        C502   1.402       .  A
C501        C506   1.410       .  A
C502        C503   1.396       .  A
C502        H507   1.084       .  S
C503        C504   1.411       .  A
C503        O508   1.373   1_455  S
C504        C505   1.405       .  A
C505        C506   1.406       .  A
C505        H509   1.083       .  S
C506        O510   1.371       .  S
O508        H512   0.991       .  S
O510        H511   0.991       .  S
C513        C514   1.403       .  A
C513        C518   1.409   1_554  A
C514        C515   1.398       .  A
C514        H519   1.084       .  S
C515        C516   1.407       .  A
C515        O520   1.372       .  S
C516        C517   1.403   1_554  A
C517        C518   1.402       .  A
C517        H521   1.084       .  S
C518        O522   1.372       .  S
O520        H524   0.992       .  S
O522        H523   0.992       .  S
C525        C526   1.403       .  A
C525        C530   1.409       .  A
C526        C527   1.397       .  A
C526        H531   1.084       .  S
C527        C528   1.410   1_565  A
C527        O532   1.372   1_565  S
C528        C529   1.405       .  A
C529        C530   1.401   1_545  A
C529        H533   1.084       .  S
C530        O534   1.372       .  S
O532        H536   0.992   1_655  S
O534        H535   0.992       .  S
C537        C538   1.403       .  A
C537        C542   1.404       .  A
C538        C539   1.405       .  A
C538        H543   1.084       .  S
C539        C540   1.412       .  A
C539        O544   1.371       .  S
C540        C541   1.406       .  A
C541        C542   1.396       .  A
C541        H545   1.083       .  S
C542        O546   1.372       .  S
O544        H548   0.992       .  S
O546        H547   0.991       .  S
C549        C550   1.403       .  A
C549        C554   1.410       .  A
C550        C551   1.398       .  A
C550        H555   1.084   1_455  S
C551        C552   1.412       .  A
C551        O556   1.372   1_455  S
C552        C553   1.404       .  A
C553        C554   1.402       .  A
C553        H557   1.083       .  S
C554        O558   1.371       .  S
O556        H560   0.992       .  S
O558        H559   0.991       .  S
C561        C562   1.403       .  A
C561        C566   1.411       .  A
C562        C563   1.397       .  A
C562        H567   1.084       .  S
C563        C564   1.408       .  A
C563        O568   1.373       .  S
C564        C565   1.401       .  A
C565        C566   1.402       .  A
C565        H569   1.084       .  S
C566        O570   1.372       .  S
O568        H572   0.992       .  S
O570        H571   0.992       .  S
C573        C574   1.406       .  A
C573        C578   1.411       .  A
C574        C575   1.400       .  A
C574        H579   1.083       .  S
C575        C576   1.408       .  A
C575        O580   1.372   1_554  S
C576        C577   1.405       .  A
C577        C578   1.404       .  A
C577        H581   1.084       .  S
C578        O582   1.371       .  S
O580        H584   0.992   1_556  S
O582        H583   0.991       .  S
C585        C586   1.405       .  A
C585        C590   1.407       .  A
C586        C587   1.405       .  A
C586        H591   1.084       .  S
C587        C588   1.412       .  A
C587        O592   1.372       .  S
C588        C589   1.403       .  A
C589        C590   1.394       .  A
C589        H593   1.083       .  S
C590        O594   1.372       .  S
O592        H596   0.992       .  S
O594        H595   0.992       .  S
C597        C598   1.407       .  A
C597        C602   1.413       .  A
C598        C599   1.405       .  A
C598        H603   1.083       .  S
C599        C600   1.408       .  A
C599        O604   1.371       .  S
C600        C601   1.401       .  A
C601        C602   1.397       .  A
C601        H605   1.084       .  S
C602        O606   1.372   1_455  S
O604        H608   0.992       .  S
O606        H607   0.992       .  S
C609        C610   1.403       .  A
C609        C614   1.410       .  A
C610        C611   1.400       .  A
C610        H615   1.084       .  S
C611        C612   1.408       .  A
C611        O616   1.372       .  S
C612        C613   1.402       .  A
C613        C614   1.400       .  A
C613        H617   1.084       .  S
C614        O618   1.372       .  S
O616        H620   0.992       .  S
O618        H619   0.992       .  S
C621        C622   1.405       .  A
C621        C626   1.412       .  A
C622        C623   1.403       .  A
C622        H627   1.083       .  S
C623        C624   1.408       .  A
C623        O628   1.371       .  S
C624        C625   1.403       .  A
C625        C626   1.400       .  A
C625        H629   1.084       .  S
C626        O630   1.372       .  S
O628        H632   0.991       .  S
O630        H631   0.992       .  S
C633        C634   1.404       .  A
C633        C638   1.411       .  A
C634        C635   1.401       .  A
C634        H639   1.084       .  S
C635        C636   1.413       .  A
C635        O640   1.372       .  S
C636        C637   1.405       .  A
C637        C638   1.404       .  A
C637        H641   1.083       .  S
C638        O642   1.372       .  S
O640        H644   0.992       .  S
O642        H643   0.992       .  S
C645        C646   1.404       .  A
C645        C650   1.409       .  A
C646        C647   1.395       .  A
C646        H651   1.084       .  S
C647        C648   1.408   1_565  A
C647        O652   1.372   1_565  S
C648        C649   1.405   1_545  A
C649        C650   1.404       .  A
C649        H653   1.083   1_565  S
C650        O654   1.371       .  S
O652        H656   0.992       .  S
O654        H655   0.991       .  S
C657        C658   1.403       .  A
C657        C662   1.413       .  A
C658        C659   1.398       .  A
C658        H663   1.083       .  S
C659        C660   1.407       .  A
C659        O664   1.372       .  S
C660        C661   1.402       .  A
C661        C662   1.405       .  A
C661        H665   1.084       .  S
C662        O666   1.372       .  S
O664        H668   0.991       .  S
O666        H667   0.992       .  S
C669        C670   1.404       .  A
C669        C674   1.409       .  A
C670        C671   1.399       .  A
C670        H675   1.084       .  S
C671        C672   1.409       .  A
C671        O676   1.372       .  S
C672        C673   1.404       .  A
C673        C674   1.403       .  A
C673        H677   1.084       .  S
C674        O678   1.371       .  S
O676        H680   0.991       .  S
O678        H679   0.991       .  S
C681        C682   1.400       .  A
C681        C686   1.410       .  A
C682        C683   1.401       .  A
C682        H687   1.084       .  S
C683        C684   1.411       .  A
C683        O688   1.372       .  S
C684        C685   1.404       .  A
C685        C686   1.398       .  A
C685        H689   1.084       .  S
C686        O690   1.373       .  S
O688        H692   0.992       .  S
O690        H691   0.992       .  S
C693        C694   1.404       .  A
C693        C698   1.411       .  A
C694        C695   1.395       .  A
C694        H699   1.084       .  S
C695        C696   1.407       .  A
C695        O700   1.373       .  S
C696        C697   1.404       .  A
C697        C698   1.404       .  A
C697        H701   1.083       .  S
C698        O702   1.372       .  S
O700        H704   0.992       .  S
O702        H703   0.992       .  S
C705        C706   1.405       .  A
C705        C710   1.412       .  A
C706        C707   1.404       .  A
C706        H711   1.083       .  S
C707        C708   1.411       .  A
C707        O712   1.371       .  S
C708        C709   1.404       .  A
C709        C710   1.399       .  A
C709        H713   1.084       .  S
C710        O714   1.372       .  S
O712        H716   0.991       .  S
O714        H715   0.992       .  S
C717        C718   1.404       .  A
C717        C722   1.410       .  A
C718        C719   1.402       .  A
C718        H723   1.084       .  S
C719        C720   1.413       .  A
C719        O724   1.372       .  S
C720        C721   1.405       .  A
C721        C722   1.403       .  A
C721        H725   1.083       .  S
C722        O726   1.371       .  S
O724        H728   0.991       .  S
O726        H727   0.991       .  S
C729        C730   1.405       .  A
C729        C734   1.412       .  A
C730        C731   1.395       .  A
C730        H735   1.083       .  S
C731        C732   1.405       .  A
C731        O736   1.372       .  S
C732        C733   1.402       .  A
C733        C734   1.402       .  A
C733        H737   1.084       .  S
C734        O738   1.371       .  S
O736        H740   0.992       .  S
O738        H739   0.991       .  S
C741        C742   1.407       .  A
C741        C746   1.411       .  A
C742        C743   1.404       .  A
C742        H747   1.083       .  S
C743        C744   1.409       .  A
C743        O748   1.371       .  S
C744        C745   1.401       .  A
C745        C746   1.396       .  A
C745        H749   1.084       .  S
C746        O750   1.371       .  S
O748        H752   0.991       .  S
O750        H751   0.992       .  S
C753        C754   1.402       .  A
C753        C758   1.410       .  A
C754        C755   1.396       .  A
C754        H759   1.084       .  S
C755        C756   1.413       .  A
C755        O760   1.372       .  S
C756        C757   1.405       .  A
C757        C758   1.405       .  A
C757        H761   1.083       .  S
C758        O762   1.371       .  S
O760        H764   0.991       .  S
O762        H763   0.991       .  S
C765        C766   1.405       .  A
C765        C770   1.413       .  A
C766        C767   1.403       .  A
C766        H771   1.083       .  S
C767        C768   1.409       .  A
C767        O772   1.371       .  S
C768        C769   1.402       .  A
C769        C770   1.397       .  A
C769        H773   1.084       .  S
C770        O774   1.372       .  S
O772        H776   0.991       .  S
O774        H775   0.992       .  S
C777        C778   1.406       .  A
C777        C782   1.412       .  A
C778        C779   1.398       .  A
C778        H783   1.084       .  S
C779        C780   1.409       .  A
C779        O784   1.372       .  S
C780        C781   1.406       .  A
C781        C782   1.408       .  A
C781        H785   1.083       .  S
C782        O786   1.371       .  S
O784        H788   0.992       .  S
O786        H787   0.992       .  S
C789        C790   1.404       .  A
C789        C794   1.411       .  A
C790        C791   1.402       .  A
C790        H795   1.083       .  S
C791        C792   1.410       .  A
C791        O796   1.371       .  S
C792        C793   1.402       .  A
C793        C794   1.395       .  A
C793        H797   1.084       .  S
C794        O798   1.372       .  S
O796        H800   0.992       .  S
O798        H799   0.991       .  S
C801        C802   1.405       .  A
C801        C806   1.412       .  A
C802        C803   1.399       .  A
C802        H807   1.083       .  S
C803        C804   1.410       .  A
C803        O808   1.372       .  S
C804        C805   1.405       .  A
C805        C806   1.406       .  A
C805        H809   1.083       .  S
C806        O810   1.371       .  S
O808        H812   0.991       .  S
O810        H811   0.992       .  S
C813        C814   1.405       .  A
C813        C818   1.405       .  A
C814        C815   1.403       .  A
C814        H819   1.084       .  S
C815        C816   1.411       .  A
C815        O820   1.371       .  S
C816        C817   1.406       .  A
C817        C818   1.398       .  A
C817        H821   1.083       .  S
C818        O822   1.372       .  S
O820        H824   0.991       .  S
O822        H823   0.991       .  S
C825        C826   1.406       .  A
C825        C830   1.407       .  A
C826        C827   1.403       .  A
C826        H831   1.084       .  S
C827        C828   1.406       .  A
C827        O832   1.371       .  S
C828        C829   1.403       .  A
C829        C830   1.399       .  A
C829        H833   1.084       .  S
C830        O834   1.371       .  S
O832        H836   0.993       .  S
O834        H835   0.992       .  S
C837        C838   1.402       .  A
C837        C842   1.407       .  A
C838        C839   1.398       .  A
C838        H843   1.084       .  S
C839        C840   1.412       .  A
C839        O844   1.371       .  S
C840        C841   1.407       .  A
C841        C842   1.402       .  A
C841        H845   1.083       .  S
C842        O846   1.372       .  S
O844        H848   0.992       .  S
O846        H847   0.992       .  S
C849        C850   1.401       .  A
C849        C854   1.409       .  A
C850        C851   1.399       .  A
C850        H855   1.084       .  S
C851        C852   1.411       .  A
C851        O856   1.371       .  S
C852        C853   1.405       .  A
C853        C854   1.404       .  A
C853        H857   1.083       .  S
C854        O858   1.372       .  S
O856        H860   0.992       .  S
O858        H859   0.991       .  S
C861        C862   1.406       .  A
C861        C866   1.410       .  A
C862        C863   1.395       .  A
C862        H867   1.084       .  S
C863        C864   1.405       .  A
C863        O868   1.372       .  S
C864        C865   1.403       .  A
C865        C866   1.401       .  A
C865        H869   1.084       .  S
C866        O870   1.372       .  S
O868        H872   0.991       .  S
O870        H871   0.992       .  S
C873        C874   1.404       .  A
C873        C878   1.413       .  A
C874        C875   1.398       .  A
C874        H879   1.084       .  S
C875        C876   1.411       .  A
C875        O880   1.372       .  S
C876        C877   1.407       .  A
C877        C878   1.408       .  A
C877        H881   1.083       .  S
C878        O882   1.371       .  S
O880        H884   0.991       .  S
O882        H883   0.991       .  S
C885        C886   1.403       .  A
C885        C890   1.411       .  A
C886        C887   1.401       .  A
C886        H891   1.084       .  S
C887        C888   1.412   1_565  A
C887        O892   1.372   1_565  S
C888        C889   1.404   1_545  A
C889        C890   1.405       .  A
C889        H893   1.083   1_565  S
C890        O894   1.371       .  S
O892        H896   0.992       .  S
O894        H895   0.991       .  S
C897        C898   1.403       .  A
C897        C902   1.410       .  A
C898        C899   1.400       .  A
C898        H903   1.084       .  S
C899        C900   1.411       .  A
C899        O904   1.373       .  S
C900        C901   1.405       .  A
C901        C902   1.402       .  A
C901        H905   1.083       .  S
C902        O906   1.371       .  S
O904        H908   0.992       .  S
O906        H907   0.992       .  S
C909        C910   1.407       .  A
C909        C914   1.411       .  A
C910        C911   1.402       .  A
C910        H915   1.083       .  S
C911        C912   1.408       .  A
C911        O916   1.371       .  S
C912        C913   1.404       .  A
C913        C914   1.399       .  A
C913        H917   1.084       .  S
C914        O918   1.371       .  S
O916        H920   0.992       .  S
O918        H919   0.992       .  S
C921        C922   1.405       .  A
C921        C926   1.408       .  A
C922        C923   1.405       .  A
C922        H927   1.084       .  S
C923        C924   1.412       .  A
C923        O928   1.372       .  S
C924        C925   1.404       .  A
C925        C926   1.397       .  A
C925        H929   1.083       .  S
C926        O930   1.372       .  S
O928        H932   0.992       .  S
O930        H931   0.992       .  S
C933        C934   1.406       .  A
C933        C938   1.412       .  A
C934        C935   1.404       .  A
C934        H939   1.083       .  S
C935        C936   1.410       .  A
C935        O940   1.371       .  S
C936        C937   1.406       .  A
C937        C938   1.402       .  A
C937        H941   1.084       .  S
C938        O942   1.372       .  S
O940        H944   0.992       .  S
O942        H943   0.991       .  S
C945        C946   1.402       .  A
C945        C950   1.409       .  A
C946        C947   1.400       .  A
C946        H951   1.084       .  S
C947        C948   1.410       .  A
C947        O952   1.372       .  S
C948        C949   1.405       .  A
C949        C950   1.402       .  A
C949        H953   1.084       .  S
C950        O954   1.372       .  S
O952        H956   0.992       .  S
O954        H955   0.992       .  S
C957        C958   1.408       .  A
C957        C962   1.412       .  A
C958        C959   1.399       .  A
C958        H963   1.083       .  S
C959        C960   1.406       .  A
C959        O964   1.372       .  S
C960        C961   1.405       .  A
C961        C962   1.407       .  A
C961        H965   1.084       .  S
C962        O966   1.371       .  S
O964        H968   0.992       .  S
O966        H967   0.992       .  S
C969        C970   1.404       .  A
C969        C974   1.412       .  A
C970        C971   1.398       .  A
C970        H975   1.084       .  S
C971        C972   1.409       .  A
C971        O976   1.372       .  S
C972        C973   1.403       .  A
C973        C974   1.402       .  A
C973        H977   1.083       .  S
C974        O978   1.371       .  S
O976        H980   0.992       .  S
O978        H979   0.992       .  S
C981        C982   1.406       .  A
C981        C986   1.413       .  A
C982        C983   1.402       .  A
C982        H987   1.083       .  S
C983        C984   1.408       .  A
C983        O988   1.371       .  S
C984        C985   1.400       .  A
C985        C986   1.397       .  A
C985        H989   1.084       .  S
C986        O990   1.372       .  S
O988        H992   0.991       .  S
O990        H991   0.992       .  S
C993        C994   1.405       .  A
C993        C998   1.409       .  A
C994        C995   1.403       .  A
C994        H999   1.084       .  S
C995        C996   1.411       .  A
C995       O1000   1.372       .  S
C996        C997   1.404       .  A
C997        C998   1.397       .  A
C997       H1001   1.084       .  S
C998       O1002   1.372       .  S
O1000      H1004   0.991       .  S
O1002      H1003   0.991       .  S
C1005      C1006   1.403       .  A
C1005      C1010   1.410       .  A
C1006      C1007   1.399       .  A
C1006      H1011   1.084       .  S
C1007      C1008   1.409       .  A
C1007      O1012   1.372       .  S
C1008      C1009   1.404       .  A
C1009      C1010   1.403       .  A
C1009      H1013   1.084       .  S
C1010      O1014   1.372       .  S
O1012      H1016   0.991       .  S
O1014      H1015   0.991       .  S
C1017      C1018   1.407       .  A
C1017      C1022   1.412       .  A
C1018      C1019   1.402       .  A
C1018      H1023   1.083       .  S
C1019      C1020   1.405       .  A
C1019      O1024   1.371       .  S
C1020      C1021   1.403       .  A
C1021      C1022   1.399       .  A
C1021      H1025   1.084       .  S
C1022      O1026   1.372       .  S
O1024      H1028   0.991       .  S
O1026      H1027   0.993       .  S
C1029      C1030   1.406       .  A
C1029      C1034   1.408       .  A
C1030      C1031   1.402       .  A
C1030      H1035   1.084       .  S
C1031      C1032   1.409       .  A
C1031      O1036   1.371       .  S
C1032      C1033   1.405       .  A
C1033      C1034   1.397       .  A
C1033      H1037   1.084       .  S
C1034      O1038   1.372       .  S
O1036      H1040   0.991       .  S
O1038      H1039   0.992       .  S
C1041      C1042   1.404       .  A
C1041      C1046   1.410       .  A
C1042      C1043   1.401       .  A
C1042      H1047   1.083       .  S
C1043      C1044   1.410       .  A
C1043      O1048   1.371       .  S
C1044      C1045   1.406       .  A
C1045      C1046   1.399       .  A
C1045      H1049   1.084       .  S
C1046      O1050   1.372       .  S
O1048      H1052   0.992       .  S
O1050      H1051   0.992       .  S
C1053      C1054   1.405       .  A
C1053      C1058   1.410       .  A
C1054      C1055   1.401       .  A
C1054      H1059   1.083       .  S
C1055      C1056   1.408       .  A
C1055      O1060   1.372       .  S
C1056      C1057   1.403       .  A
C1057      C1058   1.399       .  A
C1057      H1061   1.084       .  S
C1058      O1062   1.372   1_655  S
O1060      H1064   0.991       .  S
O1062      H1063   0.991       .  S
C1065      C1066   1.405       .  A
C1065      C1070   1.411       .  A
C1066      C1067   1.404       .  A
C1066      H1071   1.083       .  S
C1067      C1068   1.411       .  A
C1067      O1072   1.371       .  S
C1068      C1069   1.406       .  A
C1069      C1070   1.402       .  A
C1069      H1073   1.083       .  S
C1070      O1074   1.372       .  S
O1072      H1076   0.993       .  S
O1074      H1075   0.991       .  S
C1077      C1078   1.403   1_554  A
C1077      C1082   1.408       .  A
C1078      C1079   1.402       .  A
C1078      H1083   1.084       .  S
C1079      C1080   1.409   1_556  A
C1079      O1084   1.372       .  S
C1080      C1081   1.401       .  A
C1081      C1082   1.400       .  A
C1081      H1085   1.084       .  S
C1082      O1086   1.372       .  S
O1084      H1088   0.991       .  S
O1086      H1087   0.992       .  S
C1089      C1090   1.405       .  A
C1089      C1094   1.411       .  A
C1090      C1091   1.396       .  A
C1090      H1095   1.083       .  S
C1091      C1092   1.408       .  A
C1091      O1096   1.372       .  S
C1092      C1093   1.405       .  A
C1093      C1094   1.402       .  A
C1093      H1097   1.084       .  S
C1094      O1098   1.371       .  S
O1096      H1100   0.992       .  S
O1098      H1099   0.991       .  S
C1101      C1102   1.406       .  A
C1101      C1106   1.411       .  A
C1102      C1103   1.406       .  A
C1102      H1107   1.083       .  S
C1103      C1104   1.412       .  A
C1103      O1108   1.371       .  S
C1104      C1105   1.405       .  A
C1105      C1106   1.399       .  A
C1105      H1109   1.083       .  S
C1106      O1110   1.372       .  S
O1108      H1112   0.991       .  S
O1110      H1111   0.991       .  S
C1113      C1114   1.403       .  A
C1113      C1118   1.409       .  A
C1114      C1115   1.401       .  A
C1114      H1119   1.084       .  S
C1115      C1116   1.411   1_565  A
C1115      O1120   1.371   1_565  S
C1116      C1117   1.403   1_545  A
C1117      C1118   1.398       .  A
C1117      H1121   1.084   1_465  S
C1118      O1122   1.372   1_455  S
O1120      H1124   0.991       .  S
O1122      H1123   0.992       .  S
C1125      C1126   1.405       .  A
C1125      C1130   1.409       .  A
C1126      C1127   1.407       .  A
C1126      H1131   1.083       .  S
C1127      C1128   1.410       .  A
C1127      O1132   1.371       .  S
C1128      C1129   1.404       .  A
C1129      C1130   1.394       .  A
C1129      H1133   1.083   1_655  S
C1130      O1134   1.373       .  S
O1132      H1136   0.993       .  S
O1134      H1135   0.992       .  S
C1137      C1138   1.406       .  A
C1137      C1142   1.410       .  A
C1138      C1139   1.398       .  A
C1138      H1143   1.083       .  S
C1139      C1140   1.409       .  A
C1139      O1144   1.372       .  S
C1140      C1141   1.405       .  A
C1141      C1142   1.404       .  A
C1141      H1145   1.083       .  S
C1142      O1146   1.371       .  S
O1144      H1148   0.993       .  S
O1146      H1147   0.992       .  S
C1149      C1150   1.400       .  A
C1149      C1154   1.408       .  A
C1150      C1151   1.397       .  A
C1150      H1155   1.084       .  S
C1151      C1152   1.412       .  A
C1151      O1156   1.372       .  S
C1152      C1153   1.407   1_554  A
C1153      C1154   1.405   1_556  A
C1153      H1157   1.083       .  S
C1154      O1158   1.371   1_554  S
O1156      H1160   0.992       .  S
O1158      H1159   0.992   1_556  S
C1161      C1162   1.399       .  A
C1161      C1166   1.408       .  A
C1162      C1163   1.396       .  A
C1162      H1167   1.084       .  S
C1163      C1164   1.413       .  A
C1163      O1168   1.372       .  S
C1164      C1165   1.406       .  A
C1165      C1166   1.402       .  A
C1165      H1169   1.083       .  S
C1166      O1170   1.372       .  S
O1168      H1172   0.993       .  S
O1170      H1171   0.993       .  S
C1173      C1174   1.404       .  A
C1173      C1178   1.412       .  A
C1174      C1175   1.401       .  A
C1174      H1179   1.084       .  S
C1175      C1176   1.412       .  A
C1175      O1180   1.372       .  S
C1176      C1177   1.403       .  A
C1177      C1178   1.403       .  A
C1177      H1181   1.083       .  S
C1178      O1182   1.372       .  S
O1180      H1184   0.992       .  S
O1182      H1183   0.991       .  S
