geometry optimzed in LAMMPS
_audit_creation_date              2020-12-01 
_audit_creation_method            'lammps2cif' 
_symmetry_space_group_name_H-M    'P1' 
_symmetry_Int_Tables_number       1 
_symmetry_cell_setting            triclinic 
loop_ 
_symmetry_equiv_pos_as_xyz 
  x,y,z 
_cell_length_a                    25.28708821 
_cell_length_b                    24.88948328585236 
_cell_length_c                    24.642044862877874 
_cell_angle_alpha                 90.32296817952472 
_cell_angle_beta                  89.91740877409701 
_cell_angle_gamma                 89.13419909835248 
loop_ 
_atom_site_label 
_atom_site_type_symbol 
_atom_site_fract_x 
_atom_site_fract_y 
_atom_site_fract_z 
_atom_site_charge 
N1          N  0.05930152  0.06789714  0.10247433    -0.04100
N2          N  0.09908601  0.07758936  0.13548760    -0.56200
N3          N  0.93531923  0.10170875  0.06954308    -0.03800
N4          N  0.89534710  0.13526879  0.07836239    -0.58300
N5          N  0.93776708  0.06519330  0.10783177    -0.03400
N6          N  0.89960074  0.07308333  0.14366634    -0.56200
N7          N  0.05689202  0.10417029  0.06391868    -0.03100
N8          N  0.09490980  0.13942445  0.06985863    -0.58700
C9          C  0.12117416  0.12172603  0.11409307     0.98100
C10         C  0.87324138  0.11636387  0.12417270     0.97900
N11         N  0.93022983  0.06017773  0.90645282    -0.04300
N12         N  0.89028462  0.06701042  0.87282967    -0.56800
N13         N  0.05098677  0.10239393  0.93637063    -0.02400
N14         N  0.08485907  0.13990819  0.92286800    -0.58000
N15         N  0.05080491  0.06394159  0.89952027    -0.04300
N16         N  0.08444664  0.07439631  0.86012240    -0.57100
N17         N  0.93031383  0.09839822  0.94347537    -0.02000
N18         N  0.89043282  0.13217200  0.93592306    -0.58100
Mn19       Mn  0.99348489  0.10353857  0.00345469     1.18400
C20         C  0.86553875  0.11139665  0.89241011     1.00200
C21         C  0.10547683  0.12153982  0.87555863     1.00800
N22         N  0.94237474  0.93926504  0.11081990    -0.04300
N23         N  0.90647680  0.92950693  0.14836280    -0.60600
N24         N  0.06305486  0.90471628  0.06752880    -0.03100
N25         N  0.10260031  0.87056279  0.07524732    -0.61300
N26         N  0.06331782  0.94280121  0.10468796    -0.03800
N27         N  0.10297836  0.93543627  0.13862228    -0.60900
N28         N  0.94221230  0.90151651  0.07324679    -0.02700
N29         N  0.90636590  0.86526039  0.08423304    -0.61600
Mn30       Mn  0.00067889  0.00396506  0.10839967     1.10700
C31         C  0.88439152  0.88347137  0.13081383     1.01400
C32         C  0.12742492  0.89084560  0.11904529     1.01500
N33         N  0.05569385  0.93718882  0.90283707    -0.03800
N34         N  0.09111700  0.92601597  0.86493899    -0.59200
N35         N  0.93719540  0.89850313  0.94543093    -0.03200
N36         N  0.90178988  0.86107612  0.93631974    -0.55900
N37         N  0.93512576  0.93510302  0.90718282    -0.04500
N38         N  0.89828699  0.92363566  0.87133299    -0.58800
N39         N  0.05774706  0.90088738  0.94137791    -0.03500
N40         N  0.09457764  0.86432255  0.93081270    -0.56000
Mn41       Mn  0.99310537  0.99914470  0.90243216     1.20200
Mn42       Mn  0.99995116  0.89984822  0.00704811     1.10100
Cl43       Cl  0.99685489  0.00163264  0.00531756    -0.83900
C44         C  0.11523787  0.88098369  0.88354607     0.98400
C45         C  0.87767651  0.87783002  0.89039014     0.98200
C46         C  0.69874274  0.72902052  0.79369731     0.88500
C47         C  0.73824280  0.68565359  0.77413670    -0.51700
C48         C  0.78213545  0.70614528  0.74987663     0.11400
C49         C  0.78208308  0.76796686  0.74688554     0.22400
C50         C  0.73089432  0.76594459  0.83048347    -0.52400
C51         C  0.77438400  0.78606098  0.80603743     0.11500
C52         C  0.68574878  0.76296045  0.74352111    -0.52000
C53         C  0.72947603  0.78368319  0.71915891     0.12100
H54         H  0.73313259  0.64295979  0.78100003     0.16600
H55         H  0.81780111  0.78477568  0.72732216     0.02400
H56         H  0.72050143  0.77524680  0.87229583     0.16900
H57         H  0.64569127  0.77168160  0.72994023     0.16700
C58         C  0.69586314  0.73514375  0.20263903     0.88500
C59         C  0.73198424  0.77318848  0.17149399    -0.51700
C60         C  0.77287607  0.79177236  0.20177930     0.11400
C61         C  0.77436288  0.77086369  0.26007132     0.22400
C62         C  0.73284984  0.69048923  0.22377720    -0.52400
C63         C  0.77411635  0.70936393  0.25369155     0.11500
C64         C  0.67823550  0.76730463  0.25318652    -0.52000
C65         C  0.71961483  0.78636050  0.28296036     0.12100
H66         H  0.72585926  0.78436135  0.12936669     0.16600
H67         H  0.80805270  0.78625709  0.28424780     0.02400
H68         H  0.72792423  0.64815639  0.21438007     0.16900
H69         H  0.63715110  0.77647415  0.26288073     0.16700
N70         N  0.56515831  0.68499739  0.99525321    -0.34600
N71         N  0.48389314  0.68839803  0.07958925    -0.55100
N72         N  0.40113154  0.68372781  0.99677860    -0.34600
N73         N  0.48258170  0.68624499  0.91228886    -0.55100
C74         C  0.59460973  0.69806285  0.03921467     0.29000
C75         C  0.59401395  0.69641923  0.95051621     0.29000
C76         C  0.37162156  0.69493005  0.04149960     0.29000
C77         C  0.37086335  0.69468594  0.95275193     0.29000
C78         C  0.52715797  0.68309932  0.11137234     0.37600
C79         C  0.44149549  0.68182186  0.11217543     0.37600
C80         C  0.52522887  0.68166829  0.87936609     0.37600
C81         C  0.43953609  0.68165999  0.88028487     0.37600
C82         C  0.64324583  0.71672432  0.02215316    -0.19900
C83         C  0.64291223  0.71555568  0.96639837    -0.19900
C84         C  0.32141942  0.71171554  0.02564151    -0.19900
C85         C  0.32093533  0.71154959  0.96977637    -0.19900
C86         C  0.51221905  0.67312746  0.16446171    -0.20900
C87         C  0.45795470  0.67231075  0.16498456    -0.20900
C88         C  0.50922541  0.67426039  0.82608642    -0.20900
C89         C  0.45498114  0.67428022  0.82664481    -0.20900
C90         C  0.57943214  0.69274054  0.09431081    -0.16300
C91         C  0.57801728  0.68956633  0.89577761    -0.16300
C92         C  0.38671190  0.68966416  0.89768052    -0.16300
C93         C  0.38832780  0.68970264  0.09618078    -0.16300
H94         H  0.67567725  0.73004273  0.04721656     0.16600
H95         H  0.67509119  0.72776070  0.94060442     0.16600
H96         H  0.28856823  0.72332238  0.05159489     0.16600
H97         H  0.28763328  0.72300834  0.94459295     0.16600
H98         H  0.53772447  0.66822463  0.19938196     0.14900
H99         H  0.43339329  0.66664187  0.20044235     0.14900
H100        H  0.53399624  0.67076679  0.79033756     0.14900
H101        H  0.42979137  0.67071232  0.79136237     0.14900
H102        H  0.52818364  0.66761559  0.99573145     0.28200
H103        H  0.43932620  0.66812429  0.99637049     0.28200
C104        C  0.79198966  0.29118848  0.74071548     0.88500
C105        C  0.77019547  0.25681241  0.69407609    -0.51700
C106        C  0.73827273  0.21639017  0.71135290     0.11400
C107        C  0.73049982  0.21472127  0.77324834     0.22400
C108        C  0.74334136  0.31167682  0.77256955    -0.52400
C109        C  0.71155649  0.27134418  0.79014766     0.11500
C110        C  0.81908630  0.25097489  0.77869027    -0.52000
C111        C  0.78666328  0.21133287  0.79557598     0.12100
H112        H  0.78147137  0.26188272  0.65187955     0.16600
H113        H  0.70474088  0.18183809  0.78751222     0.02400
H114        H  0.73687625  0.35356761  0.78367241     0.16900
H115        H  0.86005828  0.25386006  0.79159149     0.16700
N116        N  0.70177021  0.99829542  0.41998138    -0.34600
N117        N  0.70278836  0.08036929  0.50555101    -0.55100
N118        N  0.70397065  0.99667601  0.58839029    -0.34600
N119        N  0.70941101  0.91448882  0.50252158    -0.55100
C120        C  0.71011029  0.04264457  0.38966022     0.29000
C121        C  0.71114411  0.95469200  0.38801764     0.29000
C122        C  0.71364978  0.04063377  0.61939987     0.29000
C123        C  0.71776667  0.95273595  0.61772564     0.29000
C124        C  0.69660368  0.11271830  0.46204619     0.37600
C125        C  0.69647252  0.11182175  0.55007258     0.37600
C126        C  0.70200123  0.88309014  0.45826551     0.37600
C127        C  0.70514130  0.88225000  0.54627265     0.37600
C128        C  0.72392617  0.02695392  0.33732384    -0.19900
C129        C  0.72444845  0.97158960  0.33625552    -0.19900
C130        C  0.73257309  0.02429929  0.66957889    -0.19900
C131        C  0.73518797  0.96898070  0.66851966    -0.19900
C132        C  0.68649051  0.16509613  0.47907778    -0.20900
C133        C  0.68625737  0.16450575  0.53473719    -0.20900
C134        C  0.69338903  0.83052813  0.47402754    -0.20900
C135        C  0.69543145  0.82998993  0.52969812    -0.20900
C136        C  0.70431323  0.09679610  0.40736541    -0.16300
C137        C  0.70656297  0.90019276  0.40381158    -0.16300
C138        C  0.71365220  0.89840296  0.60065143    -0.16300
C139        C  0.70526841  0.09499724  0.60406055    -0.16300
H140        H  0.73258609  0.05269100  0.30327806     0.16600
H141        H  0.73369665  0.94665571  0.30127730     0.16600
H142        H  0.74373364  0.04960451  0.70341386     0.16600
H143        H  0.74868916  0.94363079  0.70141320     0.16600
H144        H  0.68085270  0.20030247  0.45403148     0.14900
H145        H  0.68059077  0.19920281  0.56090273     0.14900
H146        H  0.68696700  0.79599407  0.44810042     0.14900
H147        H  0.69085452  0.79498447  0.55504319     0.14900
H148        H  0.68854091  0.99773538  0.45964243     0.28200
H149        H  0.68709293  0.99656205  0.55016128     0.28200
C150        C  0.78700529  0.29560887  0.27372181     0.88500
C151        C  0.81641628  0.25690900  0.23538792    -0.51700
C152        C  0.78632526  0.21558210  0.21765915     0.11400
C153        C  0.72965597  0.21626739  0.23948099     0.22400
C154        C  0.73781134  0.31389714  0.24185315    -0.52400
C155        C  0.70806752  0.27209770  0.22358006     0.11500
C156        C  0.76632123  0.26008417  0.31959075    -0.52000
C157        C  0.73648309  0.21831275  0.30148448     0.12100
H158        H  0.85748312  0.26160547  0.22342063     0.16600
H159        H  0.70560667  0.18219133  0.22461191     0.02400
H160        H  0.72905028  0.35558085  0.23201855     0.16900
H161        H  0.77649914  0.26580600  0.36202794     0.16700
N162        N  0.41804899  0.29947457  0.00418588    -0.34600
N163        N  0.50220850  0.29357129  0.92203100    -0.55100
N164        N  0.58180143  0.29292991  0.00752103    -0.34600
N165        N  0.49762693  0.29217130  0.08978221    -0.55100
C166        C  0.38916494  0.29025033  0.95893631     0.29000
C167        C  0.38663105  0.29030529  0.04764858     0.29000
C168        C  0.61308256  0.28341393  0.96367110     0.29000
C169        C  0.61083191  0.28262006  0.05250750     0.29000
C170        C  0.46019460  0.30105079  0.88904067     0.37600
C171        C  0.54576335  0.29833734  0.89072110     0.37600
C172        C  0.45413182  0.29887016  0.12125805     0.37600
C173        C  0.53991433  0.29550959  0.12307435     0.37600
C174        C  0.33825402  0.27627887  0.97388781    -0.19900
C175        C  0.33663957  0.27640070  0.02972535    -0.19900
C176        C  0.66311003  0.26779677  0.98110249    -0.19900
C177        C  0.66171962  0.26733628  0.03701166    -0.19900
C178        C  0.47710063  0.31023935  0.83638195    -0.20900
C179        C  0.53127568  0.30855732  0.83744462    -0.20900
C180        C  0.46885517  0.30590358  0.17498140    -0.20900
C181        C  0.52310111  0.30377628  0.17613976    -0.20900
C182        C  0.40690995  0.29523256  0.90457421    -0.16300
C183        C  0.40132681  0.29509307  0.10297742    -0.16300
C184        C  0.59333145  0.28804727  0.10710398    -0.16300
C185        C  0.59826962  0.28986795  0.90850162    -0.16300
H186        H  0.30555523  0.26687884  0.94737249     0.16600
H187        H  0.30252970  0.26696064  0.05429008     0.16600
H188        H  0.69717791  0.25781714  0.95616440     0.16600
H189        H  0.69455677  0.25688998  0.06323948     0.16600
H190        H  0.45291078  0.31668035  0.80073026     0.14900
H191        H  0.55700780  0.31350704  0.80274937     0.14900
H192        H  0.44319592  0.31128988  0.20984990     0.14900
H193        H  0.54735051  0.30727140  0.21211033     0.14900
H194        H  0.45646149  0.31314575  0.00527782     0.28200
H195        H  0.54339701  0.30768366  0.00694698     0.28200
C196        C  0.26396558  0.79256884  0.70007076     0.88500
C197        C  0.22737391  0.74709088  0.68156833    -0.51700
C198        C  0.20718144  0.71837179  0.72386425     0.11400
C199        C  0.22526647  0.73780909  0.78013494     0.22400
C200        C  0.23079936  0.82640321  0.73958826    -0.52400
C201        C  0.21085789  0.79783143  0.78131101     0.11500
C202        C  0.30648316  0.76529514  0.73531177    -0.52000
C203        C  0.28591447  0.73670808  0.77737809     0.12100
H204        H  0.21778686  0.73897061  0.63939114     0.16600
H205        H  0.20861798  0.71491345  0.81462737     0.02400
H206        H  0.22377076  0.86935864  0.73519889     0.16900
H207        H  0.34868921  0.77006290  0.72907967     0.16700
N208        N  0.00134262  0.58504626  0.71256186    -0.34600
N209        N  0.91971947  0.50311583  0.71590630    -0.55100
N210        N  0.00114422  0.41872600  0.71048301    -0.34600
N211        N  0.08315320  0.50069624  0.71359464    -0.55100
C212        C  0.95844289  0.61531883  0.72673447     0.29000
C213        C  0.04483829  0.61417351  0.72380062     0.29000
C214        C  0.95779571  0.38885188  0.72018477     0.29000
C215        C  0.04437097  0.38744996  0.72024741     0.29000
C216        C  0.88852560  0.54736713  0.71067052     0.37600
C217        C  0.88829393  0.46030680  0.70805091     0.37600
C218        C  0.11435398  0.54381469  0.70641973     0.37600
C219        C  0.11431991  0.45647814  0.70683297     0.37600
C220        C  0.97490210  0.66451885  0.74668562    -0.19900
C221        C  0.02933951  0.66385029  0.74473413    -0.19900
C222        C  0.97372123  0.33753445  0.73548652    -0.19900
C223        C  0.02822253  0.33665606  0.73556560    -0.19900
C224        C  0.83692267  0.53257004  0.69987958    -0.20900
C225        C  0.83677719  0.47746739  0.69822592    -0.20900
C226        C  0.16579911  0.52690823  0.69553337    -0.20900
C227        C  0.16582117  0.47166646  0.69596945    -0.20900
C228        C  0.90490713  0.60061661  0.72014847    -0.16300
C229        C  0.09796968  0.59801761  0.71385699    -0.16300
C230        C  0.09787396  0.40276200  0.71388601    -0.16300
C231        C  0.90437794  0.40604267  0.71390320    -0.16300
H232        H  0.95024978  0.69756153  0.76109414     0.16600
H233        H  0.05463497  0.69625253  0.75749539     0.16600
H234        H  0.94870762  0.30408700  0.74549440     0.16600
H235        H  0.05309446  0.30236239  0.74560621     0.16600
H236        H  0.80273218  0.55870886  0.69466313     0.14900
H237        H  0.80245837  0.45284634  0.69147117     0.14900
H238        H  0.19996418  0.55175918  0.68900754     0.14900
H239        H  0.20000175  0.44567099  0.68961548     0.14900
H240        H  0.00094885  0.54773539  0.69362735     0.28200
H241        H  0.00122179  0.45757612  0.69571524     0.28200
C242        C  0.29258704  0.26246468  0.79237294     0.88500
C243        C  0.25773897  0.30844034  0.77081419    -0.51700
C244        C  0.21559389  0.29129465  0.74118687     0.11400
C245        C  0.21275548  0.22961052  0.73523035     0.22400
C246        C  0.25501269  0.22653724  0.82384250    -0.52400
C247        C  0.21333920  0.20945609  0.79406969     0.11500
C248        C  0.30915875  0.22929387  0.74236662    -0.52000
C249        C  0.26727253  0.21174312  0.71248448     0.12100
H250        H  0.26413538  0.35047560  0.78056842     0.16600
H251        H  0.17843751  0.21543092  0.71125273     0.02400
H252        H  0.26056031  0.21589774  0.86621150     0.16900
H253        H  0.34998737  0.21883283  0.73272857     0.16700
N254        N  0.30385700  0.00284316  0.57460241    -0.34600
N255        N  0.30934245  0.92134051  0.48866419    -0.55100
N256        N  0.30942354  0.00490307  0.40589945    -0.34600
N257        N  0.29780096  0.08632705  0.49206465    -0.55100
C258        C  0.29500027  0.95789397  0.60381903     0.29000
C259        C  0.28939935  0.04569563  0.60573432     0.29000
C260        C  0.30073238  0.96084535  0.37474523     0.29000
C261        C  0.29528570  0.04857612  0.37641576     0.29000
C262        C  0.31527885  0.88898667  0.53212137     0.37600
C263        C  0.31788832  0.89018718  0.44436747     0.37600
C264        C  0.30040432  0.11797776  0.53678081     0.37600
C265        C  0.30321754  0.11892811  0.44877521     0.37600
C266        C  0.27605186  0.97251654  0.65477477    -0.19900
C267        C  0.27256702  0.02776713  0.65599597    -0.19900
C268        C  0.28235251  0.97685749  0.32425209    -0.19900
C269        C  0.27896192  0.03212254  0.32528122    -0.19900
C270        C  0.32764865  0.83701401  0.51535194    -0.20900
C271        C  0.32933117  0.83777232  0.45979808    -0.20900
C272        C  0.30739533  0.17100778  0.52179178    -0.20900
C273        C  0.30916181  0.17162179  0.46610855    -0.20900
C274        C  0.30419137  0.90413787  0.58622351    -0.16300
C275        C  0.29189043  0.10050895  0.59056603    -0.16300
C276        C  0.29729027  0.10284326  0.39401257    -0.16300
C277        C  0.30913623  0.90666299  0.39040631    -0.16300
H278        H  0.26562823  0.94617514  0.68773422     0.16600
H279        H  0.25885919  0.05193133  0.69001241     0.16600
H280        H  0.27194424  0.95136877  0.29029082     0.16600
H281        H  0.26541292  0.05726961  0.29225001     0.16600
H282        H  0.33343360  0.80188023  0.54047378     0.14900
H283        H  0.33659702  0.80330916  0.43370202     0.14900
H284        H  0.30984749  0.20579527  0.54817551     0.14900
H285        H  0.31314033  0.20701650  0.44119330     0.14900
H286        H  0.32036181  0.00423452  0.53616544     0.28200
H287        H  0.32542229  0.00532450  0.44461357     0.28200
C288        C  0.20119660  0.30067077  0.26437804     0.88500
C289        C  0.22316662  0.26392746  0.30901106    -0.51700
C290        C  0.25476443  0.22319764  0.28958223     0.11400
C291        C  0.26175323  0.22314749  0.22756030     0.22400
C292        C  0.24980301  0.32058692  0.23323399    -0.52400
C293        C  0.28131456  0.27966616  0.21370012     0.11500
C294        C  0.17340125  0.26304324  0.22472507    -0.52000
C295        C  0.20515675  0.22265851  0.20557571     0.12100
H296        H  0.21305482  0.26843974  0.35168309     0.16600
H297        H  0.28721168  0.18980492  0.21167248     0.02400
H298        H  0.25724852  0.36269188  0.22531057     0.16900
H299        H  0.13212493  0.26764143  0.21308052     0.16700
C300        C  0.20186509  0.71304648  0.27312187     0.88500
C301        C  0.17445275  0.75355639  0.23574133    -0.51700
C302        C  0.20812757  0.78913866  0.21315956     0.11400
C303        C  0.26597287  0.78150313  0.22953865     0.22400
C304        C  0.24522523  0.68645509  0.23789555    -0.52400
C305        C  0.27854641  0.72256423  0.21484225     0.11500
C306        C  0.23119092  0.74750079  0.31496530    -0.52000
C307        C  0.26449815  0.78370598  0.29182666     0.12100
H308        H  0.13214618  0.75417721  0.22786663     0.16600
H309        H  0.29286792  0.81101576  0.21067313     0.02400
H310        H  0.24781827  0.64352014  0.22994335     0.16900
H311        H  0.22379342  0.74586184  0.35836028     0.16700
N312        N  0.99142710  0.42641984  0.31429417    -0.34600
N313        N  0.07146183  0.50996398  0.31454267    -0.55100
N314        N  0.98977105  0.59313743  0.31295615    -0.34600
N315        N  0.90978062  0.50942071  0.30786949    -0.55100
C316        C  0.03517118  0.39757134  0.29997973     0.29000
C317        C  0.94876445  0.39701126  0.30060039     0.29000
C318        C  0.03346899  0.62185057  0.30144505     0.29000
C319        C  0.94729574  0.62136548  0.29449123     0.29000
C320        C  0.10284410  0.46619980  0.32139413     0.37600
C321        C  0.10181327  0.55304053  0.32462638     0.37600
C322        C  0.87880628  0.46653669  0.31657557     0.37600
C323        C  0.87808657  0.55340897  0.31206752     0.37600
C324        C  0.02008233  0.34876710  0.27781571    -0.19900
C325        C  0.96559331  0.34832644  0.27841656    -0.19900
C326        C  0.01849563  0.66941462  0.27630265    -0.19900
C327        C  0.96416028  0.66904204  0.27178308    -0.19900
C328        C  0.15341005  0.48146572  0.33595412    -0.20900
C329        C  0.15270734  0.53655758  0.33825011    -0.20900
C330        C  0.82715134  0.48333701  0.32652337    -0.20100
C331        C  0.82665875  0.53841746  0.32347272    -0.20900
C332        C  0.08819980  0.41341454  0.30801717    -0.16300
C333        C  0.89521570  0.41267975  0.30857828    -0.16300
C334        C  0.89375322  0.60602618  0.29931691    -0.16300
C335        C  0.08626740  0.60649280  0.31384829    -0.16300
H336        H  0.04564670  0.31674877  0.26273356     0.16600
H337        H  0.94118270  0.31603524  0.26366918     0.16600
H338        H  0.04407354  0.70090110  0.26217970     0.16600
H339        H  0.93986114  0.70029226  0.25368620     0.16600
H340        H  0.18760178  0.45565154  0.34257501     0.14900
H341        H  0.18634291  0.56164110  0.34671796     0.14900
H342        H  0.79306795  0.45843037  0.33330156     0.14900
H343        H  0.79213985  0.56436694  0.32764933     0.14900
H344        H  0.99066585  0.46328566  0.33427704     0.28200
H345        H  0.98885718  0.55722052  0.33423011     0.28200
C346        C  0.16338782  0.67545575  0.29566906    -0.11200
C347        C  0.12804327  0.64533934  0.30697186    -0.12800
C348        C  0.16480864  0.34293810  0.28423531    -0.11200
C349        C  0.13045707  0.37478413  0.29697469    -0.12800
C350        C  0.30056007  0.86433633  0.35071130    -0.11200
C351        C  0.28745446  0.82702166  0.32252725    -0.12800
C352        C  0.27446427  0.18063195  0.32398632    -0.11200
C353        C  0.28696407  0.14483216  0.35449718    -0.12800
C354        C  0.28217856  0.14131339  0.63223623    -0.11200
C355        C  0.27426285  0.17444561  0.66760310    -0.12800
C356        C  0.17349166  0.32800880  0.72546630    -0.11200
C357        C  0.13877667  0.36113940  0.71806540    -0.12800
C358        C  0.29612513  0.86109046  0.62473796    -0.11200
C359        C  0.28457151  0.82658374  0.65667325    -0.12800
C360        C  0.17023431  0.67494305  0.71704995    -0.11200
C361        C  0.13815052  0.63939886  0.71459107    -0.12800
C362        C  0.35983968  0.29245504  0.14379804    -0.11200
C363        C  0.32496414  0.28816066  0.17700124    -0.12800
C364        C  0.36857506  0.28925842  0.86143352    -0.11200
C365        C  0.33613857  0.27982137  0.82705639    -0.12800
C366        C  0.85448544  0.37265499  0.30148387    -0.11200
C367        C  0.82162475  0.33923743  0.29160042    -0.12800
C368        C  0.66572822  0.27917539  0.18492277    -0.11200
C369        C  0.63264744  0.28366513  0.14987554    -0.12800
C370        C  0.72002949  0.17554505  0.33685401    -0.11200
C371        C  0.71075921  0.13924143  0.36764713    -0.12800
C372        C  0.86304669  0.36615424  0.71751607    -0.11200
C373        C  0.82892347  0.33337904  0.72454318    -0.12800
C374        C  0.67108426  0.27987812  0.83084604    -0.11200
C375        C  0.63887385  0.28500699  0.86684010    -0.12800
C376        C  0.72153105  0.17349669  0.67569838    -0.11200
C377        C  0.71203965  0.13694449  0.64481459    -0.12800
C378        C  0.34929580  0.69779979  0.13892975    -0.11200
C379        C  0.31760288  0.70754969  0.17449947    -0.12800
C380        C  0.34761545  0.70009048  0.85582470    -0.11200
C381        C  0.31846012  0.71403081  0.81967275    -0.12800
C382        C  0.71287783  0.82464296  0.32689671    -0.11200
C383        C  0.70926989  0.85888518  0.36177868    -0.12800
C384        C  0.85232005  0.64491744  0.28607787    -0.11200
C385        C  0.81660955  0.67484259  0.27273300    -0.12800
C386        C  0.65234692  0.71572445  0.16839798    -0.11200
C387        C  0.61883303  0.70315700  0.13593294    -0.12800
C388        C  0.65252601  0.70845580  0.82266290    -0.11200
C389        C  0.61750946  0.69715753  0.85374363    -0.12800
C390        C  0.72550912  0.82231400  0.67560663    -0.11200
C391        C  0.72044406  0.85651190  0.64121693    -0.12800
C392        C  0.82723115  0.67256078  0.73534315    -0.11200
C393        C  0.86377938  0.64165989  0.72709270    -0.12800
C394        C  0.81040171  0.81982502  0.83481149    -0.11200
C395        C  0.84029073  0.84676568  0.86081351    -0.12800
C396        C  0.82755731  0.14094170  0.86201062    -0.11200
C397        C  0.80440378  0.17098915  0.83239539    -0.12800
C398        C  0.17923282  0.82339529  0.82229557    -0.11200
C399        C  0.15151340  0.84939886  0.85225665    -0.12800
C400        C  0.81167097  0.82734887  0.18020096    -0.11200
C401        C  0.84452899  0.85496745  0.15945448    -0.12800
C402        C  0.16561259  0.86094727  0.14906679    -0.11200
C403        C  0.18955361  0.83022003  0.17742848    -0.12800
C404        C  0.83377466  0.14527504  0.15419093    -0.11200
C405        C  0.80765182  0.17497637  0.18221852    -0.12800
C406        C  0.17320161  0.17688289  0.81793007    -0.11200
C407        C  0.14194006  0.15094921  0.84315893    -0.12800
C408        C  0.18525645  0.18266949  0.16926589    -0.11200
C409        C  0.15999966  0.15256001  0.14172507    -0.12800
loop_ 
_geom_bond_atom_site_label_1 
_geom_bond_atom_site_label_2 
_geom_bond_distance 
_geom_bond_site_symmetry_2 
_ccdc_geom_bond_type 
N1            N2   1.319       .  A
N1            N7   1.315       .  A
N1          Mn30   2.196       .  S
N2            C9   1.349       .  A
N3            N5   1.315       .  A
N3            N4   1.318       .  A
N3          Mn19   2.194       .  S
N4           C10   1.349       .  A
N5            N6   1.319       .  A
N5          Mn30   2.186   1_655  S
N6           C10   1.349       .  A
N7            N8   1.319       .  A
N7          Mn19   2.191   1_455  S
N8            C9   1.350       .  A
C9          C409   1.427       .  S
C10         C404   1.425       .  S
N11          N17   1.314       .  A
N11          N12   1.317       .  A
N11         Mn41   2.184   1_545  S
N12          C20   1.348       .  A
N13          N14   1.320       .  A
N13          N15   1.316       .  A
N13         Mn19   2.200   1_456  S
N14          C21   1.351       .  A
N15          N16   1.320       .  A
N15         Mn41   2.193   1_445  S
N16          C21   1.349       .  A
N17          N18   1.317       .  A
N17         Mn19   2.183   1_556  S
N18          C20   1.349       .  A
Mn19        Cl43   2.537       .  S
C20         C396   1.418       .  S
C21         C407   1.431       .  S
N22          N23   1.321       .  A
N22          N28   1.315       .  A
N22         Mn30   2.201   1_665  S
N23          C31   1.351       .  A
N24          N26   1.314       .  A
N24          N25   1.317       .  A
N24         Mn42   2.189   1_455  S
N25          C32   1.349       .  A
N26          N27   1.318       .  A
N26         Mn30   2.182   1_565  S
N27          C32   1.349       .  A
N28          N29   1.318       .  A
N28         Mn42   2.187       .  S
N29          C31   1.348       .  A
Mn30        Cl43   2.543   1_455  S
C31         C401   1.429       .  S
C32         C402   1.421       .  S
N33          N34   1.319       .  A
N33          N39   1.315       .  A
N33         Mn41   2.193   1_455  S
N34          C44   1.351       .  A
N35          N36   1.320       .  A
N35          N37   1.315       .  A
N35         Mn42   2.198   1_556  S
N36          C45   1.351       .  A
N37          N38   1.318       .  A
N37         Mn41   2.185       .  S
N38          C45   1.347       .  A
N39          N40   1.317       .  A
N39         Mn42   2.179   1_456  S
N40          C44   1.346       .  A
Mn41        Cl43   2.538   1_566  S
Mn42        Cl43   2.534   1_565  S
C44         C399   1.422       .  S
C45         C395   1.428       .  S
C46          C47   1.535       .  S
C46          C52   1.535       .  S
C46          C50   1.531       .  S
C46         C388   1.469       .  S
C47          H54   1.087       .  S
C47          C48   1.367       .  D
C48          C49   1.541       .  S
C48         C392   1.447       .  S
C49          C53   1.543       .  S
C49          C51   1.534       .  S
C49          H55   1.112       .  S
C50          H56   1.086       .  S
C50          C51   1.357       .  D
C51         C394   1.434       .  S
C52          H57   1.086       .  S
C52          C53   1.367       .  D
C53         C390   1.448       .  S
C58          C59   1.534       .  S
C58          C64   1.539       .  S
C58          C62   1.536       .  S
C58         C386   1.473       .  S
C59          H66   1.087       .  S
C59          C60   1.361       .  D
C60          C61   1.531       .  S
C60         C400   1.435       .  S
C61          C65   1.537       .  S
C61          C63   1.538       .  S
C61          H67   1.112       .  S
C62          H68   1.087       .  S
C62          C63   1.366       .  D
C63         C385   1.446       .  S
C64          H69   1.086       .  S
C64          C65   1.368       .  D
C65         C382   1.446       .  S
N70          C75   1.355       .  A
N70          C74   1.356   1_556  A
N70         H102   1.036       .  S
N71          C78   1.352       .  A
N71          C79   1.351       .  A
N72          C77   1.355       .  A
N72          C76   1.355   1_556  A
N72         H103   1.036       .  S
N73          C80   1.352       .  A
N73          C81   1.351       .  A
C74          C82   1.387       .  A
C74          C90   1.418       .  A
C75          C91   1.419       .  A
C75          C83   1.388       .  A
C76          C84   1.388       .  A
C76          C93   1.419       .  A
C77          C92   1.419       .  A
C77          C85   1.388       .  A
C78          C90   1.411       .  A
C78          C86   1.386       .  A
C79          C93   1.413       .  A
C79          C87   1.387       .  A
C80          C88   1.387       .  A
C80          C91   1.412       .  A
C81          C89   1.388       .  A
C81          C92   1.413       .  A
C82          C83   1.374   1_554  A
C82          H94   1.082       .  S
C83          H95   1.080       .  S
C84          C85   1.377   1_554  A
C84          H96   1.082       .  S
C85          H97   1.083       .  S
C86          C87   1.373       .  A
C86          H98   1.082       .  S
C87          H99   1.082       .  S
C88          C89   1.372       .  A
C88         H100   1.083       .  S
C89         H101   1.083       .  S
C90         C387   1.456       .  S
C91         C389   1.453       .  S
C92         C380   1.451       .  S
C93         C378   1.454       .  S
C104        C105   1.537       .  S
C104        C110   1.529       .  S
C104        C108   1.537       .  S
C104        C373   1.472       .  S
C105        H112   1.086       .  S
C105        C106   1.369       .  D
C106        C107   1.538       .  S
C106        C376   1.447       .  S
C107        C111   1.525       .  S
C107        C109   1.537       .  S
C107        H113   1.112       .  S
C108        H114   1.086       .  S
C108        C109   1.367       .  D
C109        C374   1.444       .  S
C110        H115   1.087       .  S
C110        C111   1.359       .  D
C111        C397   1.425       .  S
N116        C121   1.355       .  A
N116        C120   1.355   1_565  A
N116        H148   1.033       .  S
N117        C124   1.352       .  A
N117        C125   1.352       .  A
N118        C123   1.356       .  A
N118        C122   1.356   1_565  A
N118        H149   1.035       .  S
N119        C126   1.353       .  A
N119        C127   1.353       .  A
C120        C128   1.388       .  A
C120        C136   1.420       .  A
C121        C137   1.420       .  A
C121        C129   1.388       .  A
C122        C130   1.387       .  A
C122        C139   1.420       .  A
C123        C138   1.419       .  A
C123        C131   1.388       .  A
C124        C136   1.415       .  A
C124        C132   1.387       .  A
C125        C139   1.414       .  A
C125        C133   1.387       .  A
C126        C134   1.387       .  A
C126        C137   1.415       .  A
C127        C135   1.387       .  A
C127        C138   1.415       .  A
C128        C129   1.378   1_545  A
C128        H140   1.083       .  S
C129        H141   1.082       .  S
C130        C131   1.378   1_545  A
C130        H142   1.082       .  S
C131        H143   1.082       .  S
C132        C133   1.372       .  A
C132        H144   1.082       .  S
C133        H145   1.082       .  S
C134        C135   1.373       .  A
C134        H146   1.082       .  S
C135        H147   1.082       .  S
C136        C371   1.455       .  S
C137        C383   1.456       .  S
C138        C391   1.457       .  S
C139        C377   1.457       .  S
C150        C151   1.529       .  S
C150        C156   1.535       .  S
C150        C154   1.537       .  S
C150        C367   1.471       .  S
C151        H158   1.087       .  S
C151        C152   1.359       .  D
C152        C153   1.530       .  S
C152        C405   1.431       .  S
C153        C157   1.539       .  S
C153        C155   1.538       .  S
C153        H159   1.112       .  S
C154        H160   1.086       .  S
C154        C155   1.368       .  D
C155        C368   1.444       .  S
C156        H161   1.086       .  S
C156        C157   1.367       .  D
C157        C370   1.445       .  S
N162        C167   1.355       .  A
N162        C166   1.354   1_554  A
N162        H194   1.034       .  S
N163        C170   1.350       .  A
N163        C171   1.351       .  A
N164        C169   1.354       .  A
N164        C168   1.356   1_554  A
N164        H195   1.033       .  S
N165        C172   1.353       .  A
N165        C173   1.352       .  A
C166        C174   1.388       .  A
C166        C182   1.419       .  A
C167        C183   1.419       .  A
C167        C175   1.388       .  A
C168        C176   1.387       .  A
C168        C185   1.420       .  A
C169        C184   1.421       .  A
C169        C177   1.389       .  A
C170        C182   1.410       .  A
C170        C178   1.387       .  A
C171        C185   1.412       .  A
C171        C179   1.387       .  A
C172        C180   1.387       .  A
C172        C183   1.414       .  A
C173        C181   1.388       .  A
C173        C184   1.416       .  A
C174        C175   1.376   1_556  A
C174        H186   1.082       .  S
C175        H187   1.083       .  S
C176        C177   1.378   1_556  A
C176        H188   1.082       .  S
C177        H189   1.082       .  S
C178        C179   1.370       .  A
C178        H190   1.083       .  S
C179        H191   1.082       .  S
C180        C181   1.372       .  A
C180        H192   1.082       .  S
C181        H193   1.082       .  S
C182        C364   1.448       .  S
C183        C362   1.455       .  S
C184        C369   1.453       .  S
C185        C375   1.454       .  S
C196        C197   1.540       .  S
C196        C202   1.536       .  S
C196        C200   1.526       .  S
C196        C359   1.468       .  S
C197        H204   1.086       .  S
C197        C198   1.370       .  D
C198        C199   1.538       .  S
C198        C360   1.449       .  S
C199        C203   1.535       .  S
C199        C201   1.532       .  S
C199        H205   1.112       .  S
C200        H206   1.087       .  S
C200        C201   1.354       .  D
C201        C398   1.428       .  S
C202        H207   1.086       .  S
C202        C203   1.367       .  D
C203        C381   1.441       .  S
N208        C213   1.355       .  A
N208        C212   1.356   1_455  A
N208        H240   1.037       .  S
N209        C216   1.352       .  A
N209        C217   1.352       .  A
N210        C215   1.355       .  A
N210        C214   1.356   1_455  A
N210        H241   1.035       .  S
N211        C218   1.354       .  A
N211        C219   1.353       .  A
C212        C220   1.387       .  A
C212        C228   1.417       .  A
C213        C229   1.417       .  A
C213        C221   1.388       .  A
C214        C222   1.388       .  A
C214        C231   1.420       .  A
C215        C230   1.420       .  A
C215        C223   1.389       .  A
C216        C228   1.413       .  A
C216        C224   1.387       .  A
C217        C231   1.413       .  A
C217        C225   1.387       .  A
C218        C226   1.387       .  A
C218        C229   1.416       .  A
C219        C227   1.388       .  A
C219        C230   1.418       .  A
C220        C221   1.377   1_655  A
C220        H232   1.082       .  S
C221        H233   1.082       .  S
C222        C223   1.378   1_655  A
C222        H234   1.082       .  S
C223        H235   1.083       .  S
C224        C225   1.372       .  A
C224        H236   1.082       .  S
C225        H237   1.082       .  S
C226        C227   1.375       .  A
C226        H238   1.082       .  S
C227        H239   1.082       .  S
C228        C393   1.456       .  S
C229        C361   1.458       .  S
C230        C357   1.457       .  S
C231        C372   1.455       .  S
C242        C243   1.532       .  S
C242        C248   1.534       .  S
C242        C246   1.528       .  S
C242        C365   1.464       .  S
C243        H250   1.087       .  S
C243        C244   1.365       .  D
C244        C245   1.544       .  S
C244        C356   1.447       .  S
C245        C249   1.546       .  S
C245        C247   1.537       .  S
C245        H251   1.111       .  S
C246        H252   1.087       .  S
C246        C247   1.357       .  D
C247        C406   1.436       .  S
C248        H253   1.087       .  S
C248        C249   1.367       .  D
C249        C355   1.449       .  S
N254        C259   1.356       .  A
N254        C258   1.355   1_545  A
N254        H286   1.035       .  S
N255        C262   1.351       .  A
N255        C263   1.351       .  A
N256        C261   1.355       .  A
N256        C260   1.356   1_545  A
N256        H287   1.037       .  S
N257        C264   1.353       .  A
N257        C265   1.352       .  A
C258        C266   1.388       .  A
C258        C274   1.420       .  A
C259        C275   1.419       .  A
C259        C267   1.387       .  A
C260        C268   1.387       .  A
C260        C277   1.418       .  A
C261        C276   1.418       .  A
C261        C269   1.388       .  A
C262        C274   1.410       .  A
C262        C270   1.387       .  A
C263        C277   1.411       .  A
C263        C271   1.387       .  A
C264        C272   1.386       .  A
C264        C275   1.414       .  A
C265        C273   1.387       .  A
C265        C276   1.414       .  A
C266        C267   1.377   1_565  A
C266        H278   1.081       .  S
C267        H279   1.082       .  S
C268        C269   1.377   1_565  A
C268        H280   1.082       .  S
C269        H281   1.082       .  S
C270        C271   1.370       .  A
C270        H282   1.083       .  S
C271        H283   1.082       .  S
C272        C273   1.373       .  A
C272        H284   1.082       .  S
C273        H285   1.082       .  S
C274        C358   1.452       .  S
C275        C354   1.458       .  S
C276        C353   1.453       .  S
C277        C350   1.452       .  S
C288        C289   1.534       .  S
C288        C294   1.529       .  S
C288        C292   1.538       .  S
C288        C348   1.468       .  S
C289        H296   1.087       .  S
C289        C290   1.365       .  D
C290        C291   1.538       .  S
C290        C352   1.444       .  S
C291        C295   1.531       .  S
C291        C293   1.538       .  S
C291        H297   1.112       .  S
C292        H298   1.086       .  S
C292        C293   1.369       .  D
C293        C363   1.445       .  S
C294        H299   1.087       .  S
C294        C295   1.359       .  D
C295        C408   1.432       .  S
C300        C301   1.529       .  S
C300        C306   1.536       .  S
C300        C304   1.537       .  S
C300        C346   1.471       .  S
C301        H308   1.087       .  S
C301        C302   1.359       .  D
C302        C303   1.527       .  S
C302        C403   1.428       .  S
C303        C307   1.536       .  S
C303        C305   1.537       .  S
C303        H309   1.112       .  S
C304        H310   1.086       .  S
C304        C305   1.367       .  D
C305        C379   1.444       .  S
C306        H311   1.086       .  S
C306        C307   1.369       .  D
C307        C351   1.443       .  S
N312        C317   1.355       .  A
N312        C316   1.355   1_655  A
N312        H344   1.039       .  S
N313        C320   1.349       .  A
N313        C321   1.350       .  A
N314        C319   1.355       .  A
N314        C318   1.356   1_655  A
N314        H345   1.039       .  S
N315        C322   1.351       .  A
N315        C323   1.350       .  A
C316        C324   1.388       .  A
C316        C332   1.417       .  A
C317        C333   1.417       .  A
C317        C325   1.387       .  A
C318        C326   1.387       .  A
C318        C335   1.417       .  A
C319        C334   1.417       .  A
C319        C327   1.388       .  A
C320        C332   1.408       .  A
C320        C328   1.387       .  A
C321        C335   1.408       .  A
C321        C329   1.387       .  A
C322        C330   1.387       .  A
C322        C333   1.410       .  A
C323        C331   1.387       .  A
C323        C334   1.411       .  A
C324        C325   1.378   1_455  A
C324        H336   1.082       .  S
C325        H337   1.082       .  S
C326        C327   1.379   1_455  A
C326        H338   1.082       .  S
C327        H339   1.082       .  S
C328        C329   1.372       .  A
C328        H340   1.082       .  S
C329        H341   1.083       .  S
C330        C331   1.373       .  A
C330        H342   1.083       .  S
C331        H343   1.082       .  S
C332        C349   1.451       .  S
C333        C366   1.454       .  S
C334        C384   1.454       .  S
C335        C347   1.453       .  S
C346        C347   1.208       .  T
C348        C349   1.207       .  T
C350        C351   1.207       .  T
C352        C353   1.208       .  T
C354        C355   1.211       .  T
C356        C357   1.210       .  T
C358        C359   1.207       .  T
C360        C361   1.211       .  T
C362        C363   1.208       .  T
C364        C365   1.205       .  T
C366        C367   1.209       .  T
C368        C369   1.208       .  T
C370        C371   1.209       .  T
C372        C373   1.209       .  T
C374        C375   1.208       .  T
C376        C377   1.210       .  T
C378        C379   1.208       .  T
C380        C381   1.206       .  T
C382        C383   1.209       .  T
C384        C385   1.209       .  T
C386        C387   1.210       .  T
C388        C389   1.207       .  T
C390        C391   1.210       .  T
C392        C393   1.210       .  T
C394        C395   1.201       .  T
C396        C397   1.195       .  T
C398        C399   1.198       .  T
C400        C401   1.202       .  T
C402        C403   1.197       .  T
C404        C405   1.199       .  T
C406        C407   1.203       .  T
C408        C409   1.200       .  T
