geometry optimzed in LAMMPS
_audit_creation_date              2020-12-01 
_audit_creation_method            'lammps2cif' 
_symmetry_space_group_name_H-M    'P1' 
_symmetry_Int_Tables_number       1 
_symmetry_cell_setting            triclinic 
loop_ 
_symmetry_equiv_pos_as_xyz 
  x,y,z 
_cell_length_a                    38.55882159 
_cell_length_b                    38.61733613451127 
_cell_length_c                    59.444761164955146 
_cell_angle_alpha                 89.90287664717229 
_cell_angle_beta                  89.92425550128267 
_cell_angle_gamma                 89.95472887479131 
loop_ 
_atom_site_label 
_atom_site_type_symbol 
_atom_site_fract_x 
_atom_site_fract_y 
_atom_site_fract_z 
_atom_site_charge 
O1          O  0.43508135  0.10422134  0.12725591    -0.74200
O2          O  0.41490919  0.20192918  0.12982179    -0.74200
O3          O  0.43596705  0.15276277  0.16011024    -0.74300
O4          O  0.41485586  0.15339532  0.09725384    -0.74300
O5          O  0.35984883  0.13981963  0.10474386    -0.74200
O6          O  0.38043138  0.14229506  0.16820326    -0.74200
O7          O  0.35945285  0.18907263  0.13675140    -0.74200
O8          O  0.38007470  0.09265831  0.13604114    -0.74300
Ni9        Ni  0.42721979  0.15350911  0.12838581     1.25400
Ni10       Ni  0.36801795  0.14054408  0.13675715     1.25400
C11         C  0.41075107  0.08238730  0.13127373     0.88000
C12         C  0.38334633  0.21124861  0.13297542     0.87900
C13         C  0.41188665  0.14709344  0.17449727     0.88000
C14         C  0.38392370  0.14721273  0.09060106     0.88100
O15         O  0.45352519  0.80359374  0.13078985    -0.74200
O16         O  0.49487643  0.71265982  0.13138128    -0.74200
O17         O  0.46425067  0.75434346  0.16289295    -0.74300
O18         O  0.48398287  0.76127494  0.09966296    -0.74300
O19         O  0.53491522  0.78593095  0.10720611    -0.74200
O20         O  0.51581148  0.77689942  0.17066486    -0.74200
O21         O  0.54620016  0.73680783  0.13846899    -0.74200
O22         O  0.50499805  0.82634327  0.13922257    -0.74300
Ni23       Ni  0.47224587  0.75716998  0.13095270     1.25400
Ni24       Ni  0.52722918  0.78232228  0.13921238     1.25400
C25         C  0.47261769  0.82990406  0.13527282     0.88000
C26         C  0.52779996  0.71018331  0.13397652     0.87900
C27         C  0.48664544  0.76464936  0.17736837     0.88000
C28         C  0.51300486  0.77385761  0.09302487     0.88100
O29         O  0.43810950  0.11147914  0.88685558    -0.74200
O30         O  0.40323189  0.20502234  0.88462681    -0.74200
O31         O  0.40945992  0.15557703  0.91686805    -0.74300
O32         O  0.43314696  0.16081884  0.85468944    -0.74300
O33         O  0.38171406  0.13895116  0.84540374    -0.74200
O34         O  0.35612659  0.13757552  0.90824950    -0.74200
O35         O  0.35165873  0.18442758  0.87423526    -0.74200
O36         O  0.38495754  0.09193728  0.87926251    -0.74300
Ni37       Ni  0.42283838  0.15901314  0.88606681     1.25400
Ni38       Ni  0.36672193  0.13757539  0.87644057     1.25400
C39         C  0.41690818  0.08636515  0.88365683     0.88000
C40         C  0.37154308  0.20991446  0.87881959     0.87900
C41         C  0.37926853  0.14547627  0.92287415     0.88000
C42         C  0.41191401  0.15000740  0.83975042     0.88100
O43         O  0.45588851  0.81124129  0.88911717    -0.74200
O44         O  0.48029961  0.71468715  0.88643299    -0.74200
O45         O  0.47960524  0.76409657  0.91904078    -0.74300
O46         O  0.45583789  0.76250278  0.85660457    -0.74300
O47         O  0.50955873  0.77851441  0.84769447    -0.74200
O48         O  0.53439148  0.77711114  0.91055885    -0.74200
O49         O  0.53402638  0.72981929  0.87651274    -0.74200
O50         O  0.51074350  0.82537685  0.88144545    -0.74300
Ni51       Ni  0.46599933  0.76249341  0.88812160     1.25400
Ni52       Ni  0.52414616  0.77806976  0.87873164     1.25400
C53         C  0.47952882  0.83409468  0.88595733     0.88000
C54         C  0.51130832  0.70655145  0.88067511     0.87900
C55         C  0.51044617  0.77183867  0.92519513     0.88000
C56         C  0.47834854  0.77139071  0.84182020     0.88100
O57         O  0.43560523  0.81836070  0.63154624    -0.74200
O58         O  0.40553080  0.72313010  0.63364286    -0.74200
O59         O  0.41172416  0.77248247  0.60107105    -0.74300
O60         O  0.43030657  0.76910065  0.66424207    -0.74300
O61         O  0.37702202  0.78858796  0.67153175    -0.74200
O62         O  0.35703075  0.78812462  0.60795227    -0.74200
O63         O  0.35217763  0.74138862  0.64208680    -0.74200
O64         O  0.38113045  0.83528525  0.63756927    -0.74300
Ni65       Ni  0.42275207  0.77009325  0.63240294     1.25400
Ni66       Ni  0.36493383  0.78890942  0.64004954     1.25400
C67         C  0.41287118  0.84248776  0.63356092     0.88000
C68         C  0.37368171  0.71681201  0.63842043     0.87900
C69         C  0.38159997  0.78126862  0.59406057     0.88000
C70         C  0.40690999  0.77834982  0.67831183     0.88100
O71         O  0.45584266  0.11976489  0.63122160    -0.74200
O72         O  0.48998570  0.21338982  0.63359419    -0.74200
O73         O  0.47952209  0.16611283  0.60058076    -0.74300
O74         O  0.46540601  0.16730236  0.66409001    -0.74300
O75         O  0.51844023  0.14594070  0.66965703    -0.74200
O76         O  0.53351673  0.14725655  0.60535860    -0.74200
O77         O  0.54323529  0.19291807  0.63966762    -0.74200
O78         O  0.50995080  0.10033916  0.63543055    -0.74300
Ni79       Ni  0.47079535  0.16736291  0.63219751     1.25400
Ni80       Ni  0.52822437  0.14595309  0.63772218     1.25400
C81         C  0.47757501  0.09468814  0.63275717     0.88000
C82         C  0.52240734  0.21842706  0.63712885     0.87900
C83         C  0.50861011  0.15640169  0.59229995     0.88000
C84         C  0.48929869  0.15688763  0.67737776     0.88100
O85         O  0.44289610  0.80294305  0.38823578    -0.74200
O86         O  0.40672902  0.70955969  0.38762411    -0.74200
O87         O  0.43585351  0.75280257  0.35638079    -0.74300
O88         O  0.41482139  0.75921259  0.41928084    -0.74300
O89         O  0.36255058  0.78074108  0.41141861    -0.74200
O90         O  0.38340504  0.77327173  0.34803011    -0.74200
O91         O  0.35434644  0.73107692  0.37993212    -0.74200
O92         O  0.39029405  0.82273441  0.37979014    -0.74300
Ni93       Ni  0.42699085  0.75537448  0.38812230     1.25400
Ni94       Ni  0.37082583  0.77758662  0.37943301     1.25400
C95         C  0.42222420  0.82832855  0.38423489     0.88000
C96         C  0.37407062  0.70537856  0.38445928     0.87900
C97         C  0.41348270  0.76259466  0.34177853     0.88000
C98         C  0.38533109  0.77076523  0.42576765     0.88100
O99         O  0.45689395  0.10540340  0.38627438    -0.72600
O100        O  0.48088710  0.20216567  0.38141316    -0.74200
O101        O  0.45882899  0.15238727  0.35228888    -0.74300
O102        O  0.47791648  0.15562757  0.41529788    -0.74300
O103        O  0.53260441  0.13937066  0.40899397    -0.74200
O104        O  0.51395836  0.13910280  0.34510530    -0.74200
O105        O  0.53597647  0.18674908  0.37549549    -0.74200
O106        O  0.51176208  0.09147210  0.37852448    -0.74300
Ni107      Ni  0.46664060  0.15439385  0.38403134     1.25400
Ni108      Ni  0.52552148  0.13867505  0.37677391     1.25400
C109        C  0.48053034  0.08257679  0.38274686     0.88000
C110        C  0.51282087  0.21004730  0.37819245     0.87900
C111        C  0.48300232  0.14535850  0.33822692     0.88000
C112        C  0.50818864  0.14807746  0.42258598     0.88100
O113        O  0.10917646  0.45751913  0.12690288    -0.74200
O114        O  0.20197053  0.42066160  0.13066231    -0.74200
O115        O  0.15427725  0.42830842  0.09752173    -0.74300
O116        O  0.15682378  0.45084429  0.16007150    -0.74300
O117        O  0.13571353  0.39881736  0.16868300    -0.74200
O118        O  0.13151551  0.37666484  0.10560745    -0.74200
O119        O  0.17962107  0.36889953  0.13865413    -0.74200
O120        O  0.08828037  0.40544897  0.13594067    -0.74300
Ni121      Ni  0.15642284  0.44119261  0.12849850     1.25400
Ni122      Ni  0.13317116  0.38557805  0.13750243     1.25400
C123        C  0.08353049  0.43729976  0.13104404     0.88000
C124        C  0.20590944  0.38836844  0.13511074     0.87900
C125        C  0.14171183  0.39926142  0.09120197     0.88000
C126        C  0.14620631  0.42894145  0.17471578     0.88100
O127        O  0.80762104  0.47556898  0.12808065    -0.74200
O128        O  0.71105232  0.50081329  0.13071914    -0.74200
O129        O  0.76029155  0.49861426  0.09816973    -0.74300
O130        O  0.75848390  0.47674477  0.16075673    -0.74300
O131        O  0.77413197  0.53057325  0.16920240    -0.74200
O132        O  0.77409252  0.55336385  0.10596420    -0.74200
O133        O  0.72672129  0.55468293  0.13965917    -0.74200
O134        O  0.82196867  0.53015638  0.13581996    -0.74300
Ni135      Ni  0.75880783  0.48598882  0.12916265     1.25400
Ni136      Ni  0.77474868  0.54412457  0.13794125     1.25400
C137        C  0.83066508  0.49896749  0.13135462     0.88000
C138        C  0.70325890  0.53213171  0.13581980     0.87900
C139        C  0.76738751  0.52939320  0.09167010     0.88000
C140        C  0.76621745  0.49973129  0.17541999     0.88100
O141        O  0.09784589  0.46185599  0.88290610    -0.74200
O142        O  0.19127208  0.42513076  0.88432993    -0.74200
O143        O  0.14855459  0.45117986  0.85192380    -0.74300
O144        O  0.14079677  0.43693147  0.91524262    -0.74300
O145        O  0.11975372  0.38401283  0.90972501    -0.74200
O146        O  0.12766569  0.39828261  0.84565467    -0.74200
O147        O  0.16959407  0.37231901  0.87863401    -0.74200
O148        O  0.07800883  0.40852537  0.87694022    -0.74300
Ni149      Ni  0.14541626  0.44568313  0.88378483     1.25400
Ni150      Ni  0.12312844  0.38891412  0.87747750     1.25400
C151        C  0.07252344  0.44087460  0.87949577     0.88000
C152        C  0.19538590  0.39227867  0.88228160     0.87900
C153        C  0.13900912  0.42746084  0.83829311     0.88000
C154        C  0.12863572  0.40857461  0.92307193     0.88100
O155        O  0.79463076  0.47747975  0.88503013    -0.74200
O156        O  0.69830861  0.50505338  0.88492446    -0.74200
O157        O  0.74394040  0.48135360  0.85327517    -0.74300
O158        O  0.74865993  0.50025215  0.91634275    -0.74300
O159        O  0.76521362  0.55441990  0.90918304    -0.74200
O160        O  0.75934587  0.53562362  0.84559989    -0.74200
O161        O  0.71499723  0.55931157  0.87789709    -0.74200
O162        O  0.80968075  0.53181330  0.87725810    -0.74300
Ni163      Ni  0.74582363  0.48904060  0.88508033     1.25400
Ni164      Ni  0.76282132  0.54716167  0.87713841     1.25400
C165        C  0.81809636  0.50043888  0.88145572     0.88000
C166        C  0.69121372  0.53728513  0.88233014     0.87900
C167        C  0.75081295  0.50516083  0.83894591     0.88000
C168        C  0.75763480  0.53033145  0.92324170     0.88100
O169        O  0.79459770  0.46100711  0.62628265    -0.74200
O170        O  0.69712283  0.43774245  0.62890134    -0.74200
O171        O  0.74489192  0.46254263  0.65871213    -0.74300
O172        O  0.74641374  0.43753637  0.59661400    -0.74300
O173        O  0.76036138  0.38321290  0.60545997    -0.74200
O174        O  0.75888562  0.40863546  0.66837080    -0.74200
O175        O  0.71207199  0.38375702  0.63827528    -0.74200
O176        O  0.80759920  0.40674847  0.63559372    -0.74300
Ni177      Ni  0.74530334  0.45169328  0.62734704     1.25400
Ni178      Ni  0.76022026  0.39372247  0.63730873     1.25400
C179        C  0.81721961  0.43743322  0.63051152     0.88000
C180        C  0.68898992  0.40625373  0.63340676     0.87900
C181        C  0.75154516  0.43999105  0.67387728     0.88000
C182        C  0.75274850  0.40634115  0.59069806     0.88100
O183        O  0.09919961  0.46698082  0.62626952    -0.74200
O184        O  0.19092487  0.50674587  0.62995909    -0.74200
O185        O  0.14680797  0.47494994  0.65923707    -0.74300
O186        O  0.14378261  0.49788404  0.59689748    -0.74300
O187        O  0.11953490  0.54887098  0.60479048    -0.74200
O188        O  0.12394204  0.52601034  0.66808002    -0.74200
O189        O  0.16676164  0.55780944  0.63778400    -0.74200
O190        O  0.07655362  0.51833947  0.63530057    -0.74300
Ni191      Ni  0.14600526  0.48480663  0.62780779     1.25400
Ni192      Ni  0.12092783  0.53959630  0.63680377     1.25400
C193        C  0.07292866  0.48629891  0.63063378     0.88000
C194        C  0.19362846  0.53928920  0.63395002     0.87900
C195        C  0.13513449  0.49597158  0.67399195     0.88000
C196        C  0.13177701  0.52714528  0.59047741     0.88100
O197        O  0.78732036  0.45708041  0.38680618    -0.74200
O198        O  0.69520503  0.41891357  0.38212063    -0.74200
O199        O  0.74209863  0.42800083  0.41592024    -0.74300
O200        O  0.74068595  0.44905475  0.35317181    -0.74300
O201        O  0.76395471  0.39767911  0.34546708    -0.74200
O202        O  0.76369530  0.37553990  0.40880310    -0.74200
O203        O  0.71850044  0.36759778  0.37422006    -0.74200
O204        O  0.80917880  0.40461122  0.38001432    -0.74300
Ni205      Ni  0.74041791  0.44009289  0.38476633     1.25400
Ni206      Ni  0.76454184  0.38450804  0.37682999     1.25400
C207        C  0.81334405  0.43662012  0.38462635     0.88000
C208        C  0.69181699  0.38672406  0.37724377     0.87900
C209        C  0.75394388  0.39888838  0.42278895     0.88000
C210        C  0.75227735  0.42718394  0.33889524     0.88100
O211        O  0.08947076  0.47313098  0.38387373    -0.74200
O212        O  0.18557749  0.50100318  0.38259682    -0.74200
O213        O  0.13576684  0.49528489  0.41483194    -0.74300
O214        O  0.13919143  0.47762643  0.35176692    -0.74300
O215        O  0.12129627  0.53134479  0.34450779    -0.74200
O216        O  0.12133026  0.55030266  0.40830912    -0.74200
O217        O  0.16862821  0.55481952  0.37446364    -0.74200
O218        O  0.07394616  0.52809561  0.37816482    -0.74300
Ni219      Ni  0.13813001  0.48481505  0.38349911     1.25400
Ni220      Ni  0.12078246  0.54308385  0.37611057     1.25400
C221        C  0.06595325  0.49640642  0.38149279     0.88000
C222        C  0.19270037  0.53269772  0.37794895     0.87900
C223        C  0.12762975  0.52538434  0.42206413     0.88000
C224        C  0.13034529  0.50111407  0.33768702     0.88100
C225        C  0.02885493  0.48760313  0.38312177    -0.11700
C226        C  0.01436920  0.45873621  0.37213377     0.03800
C227        C  0.97856746  0.45297561  0.37333223    -0.12300
C228        C  0.95687479  0.47570295  0.38525177     0.18600
C229        C  0.97137864  0.50422250  0.39645514    -0.09300
C230        C  0.00703979  0.51010574  0.39517168    -0.02300
H231        H  0.96749619  0.43090339  0.36471457     0.05100
C232        C  0.91940707  0.46830397  0.38648420     0.20600
H233        H  0.01786292  0.53230450  0.40379459     0.10300
C234        C  0.90835218  0.44005822  0.39939729    -0.15600
C235        C  0.87347910  0.43052097  0.39987279     0.03300
C236        C  0.84898427  0.44944552  0.38722167    -0.11000
C237        C  0.85977238  0.47866517  0.37505970    -0.01000
C238        C  0.89484616  0.48800227  0.37443148    -0.06100
H239        H  0.92707261  0.42506888  0.40890750     0.06300
H240        H  0.84120954  0.49314915  0.36510749     0.09700
Br241      Br  0.94369386  0.53519126  0.41421001    -0.05900
Br242      Br  0.04166752  0.42796368  0.35399156    -0.02800
Br243      Br  0.86070941  0.39166304  0.41833257     0.00100
Br244      Br  0.90830893  0.52619010  0.35568393    -0.04300
C245        C  0.12555468  0.53091633  0.44668201    -0.11700
C246        C  0.10945965  0.50634704  0.46091961     0.03800
C247        C  0.10997659  0.51091823  0.48426124    -0.12300
C248        C  0.12659435  0.53950470  0.49391502     0.18600
C249        C  0.14230932  0.56427154  0.47979658    -0.09300
C250        C  0.14130630  0.56010793  0.45634598    -0.02300
H251        H  0.09785449  0.49170419  0.49500493     0.05100
C252        C  0.12908109  0.54139935  0.51876256     0.20600
H253        H  0.15392828  0.57908796  0.44568034     0.10300
C254        C  0.15936608  0.52953793  0.52923260    -0.15600
C255        C  0.16122480  0.52653051  0.55265624     0.03300
C256        C  0.13223767  0.53519584  0.56610283    -0.11000
C257        C  0.10259806  0.54898031  0.55567761    -0.01000
C258        C  0.10082912  0.55196013  0.53215664    -0.06100
H259        H  0.18139522  0.52176955  0.51907516     0.06300
H260        H  0.08023764  0.55602289  0.56574258     0.09700
Br261      Br  0.16599903  0.60363260  0.49192419    -0.05900
Br262      Br  0.08549002  0.46648132  0.44949140    -0.02800
Br263      Br  0.20436914  0.51116117  0.56538502     0.00100
Br264      Br  0.05918708  0.56977210  0.51888041    -0.04300
C265        C  0.75120457  0.39756233  0.56641215    -0.11700
C266        C  0.72635608  0.41311189  0.55209049     0.03800
C267        C  0.72784033  0.40759994  0.52887981    -0.12300
C268        C  0.75364627  0.38671375  0.51938181     0.18600
C269        C  0.77759348  0.36997620  0.53358357    -0.09300
C270        C  0.77604448  0.37518530  0.55695825    -0.02300
H271        H  0.70925182  0.42048775  0.51805327     0.05100
C272        C  0.75714394  0.38637767  0.49457247     0.20600
H273        H  0.79528292  0.36300641  0.56763191     0.10300
C274        C  0.77373321  0.41446299  0.48424279    -0.15600
C275        C  0.77388234  0.41807754  0.46086426     0.03300
C276        C  0.75723100  0.39322215  0.44727742    -0.11000
C277        C  0.74197552  0.36416804  0.45752492    -0.01000
C278        C  0.74154241  0.36080339  0.48107320    -0.06100
H279        H  0.78588255  0.43419885  0.49449891     0.06300
H280        H  0.72909012  0.34490116  0.44728617     0.09700
Br281      Br  0.81389008  0.34153425  0.52156211    -0.05900
Br282      Br  0.68929213  0.44182085  0.56306258    -0.02800
Br283      Br  0.79762901  0.45738584  0.44837660     0.00100
Br284      Br  0.71790878  0.32206339  0.49418884    -0.04300
C285        C  0.85516215  0.44448163  0.62951827    -0.11700
C286        C  0.86965087  0.47811872  0.63057710     0.03800
C287        C  0.90579973  0.48225246  0.63037303    -0.12300
C288        C  0.92797246  0.45350199  0.62921688     0.18600
C289        C  0.91379135  0.42012962  0.62830622    -0.09300
C290        C  0.87785969  0.41585395  0.62831006    -0.02300
H291        H  0.91673154  0.50803814  0.63133103     0.05100
C292        C  0.96588705  0.45873900  0.62943683     0.20600
H293        H  0.86772377  0.38974450  0.62751764     0.10300
C294        C  0.98271399  0.46377534  0.65004562    -0.15600
C295        C  0.01831351  0.47054525  0.65074738     0.03300
C296        C  0.03755979  0.47224644  0.63061079    -0.11000
C297        C  0.02099058  0.46593285  0.61005605    -0.01000
C298        C  0.98531038  0.45923831  0.60935925    -0.06100
H299        H  0.96798572  0.46300220  0.66557940     0.06300
H300        H  0.03548577  0.46780807  0.59446786     0.09700
Br301      Br  0.94261628  0.37960331  0.62765790    -0.05900
Br302      Br  0.84224162  0.51939772  0.63349857    -0.02800
Br303      Br  0.03957215  0.47781159  0.67953729     0.00100
Br304      Br  0.96372764  0.45265750  0.58064414    -0.04300
C305        C  0.75143716  0.45060293  0.69799104    -0.11700
C306        C  0.73088220  0.47844530  0.70606827     0.03800
C307        C  0.73214076  0.48776621  0.72883238    -0.12300
C308        C  0.75376226  0.47022865  0.74393973     0.18600
C309        C  0.77455550  0.44288239  0.73600857    -0.09300
C310        C  0.77311499  0.43312887  0.71330145    -0.02300
H311        H  0.71586775  0.50867288  0.73486311     0.05100
C312        C  0.75298080  0.47981824  0.76809471     0.20600
H313        H  0.78946597  0.41211669  0.70754134     0.10300
C314        C  0.73040684  0.46218548  0.78259184    -0.15600
C315        C  0.72856866  0.47051124  0.80550286     0.03300
C316        C  0.74994441  0.49696716  0.81444291    -0.11000
C317        C  0.77201334  0.51508881  0.79965687    -0.01000
C318        C  0.77362435  0.50671910  0.77671161    -0.06100
H319        H  0.71391154  0.44192421  0.77597724     0.06300
H320        H  0.78863945  0.53541787  0.80602066     0.09700
Br321      Br  0.80567233  0.41859385  0.75561486    -0.05900
Br322      Br  0.69917486  0.50406659  0.68747842    -0.02800
Br323      Br  0.69482071  0.44588265  0.82313646     0.00100
Br324      Br  0.80471869  0.53225833  0.75774499    -0.04300
C325        C  0.13962287  0.43488544  0.81382038    -0.11700
C326        C  0.16618346  0.45497083  0.80388021     0.03800
C327        C  0.16373522  0.46491957  0.78127478    -0.12300
C328        C  0.13512232  0.45529678  0.76816692     0.18600
C329        C  0.10907082  0.43443930  0.77785670    -0.09300
C330        C  0.11152735  0.42434016  0.80046302    -0.02300
H331        H  0.18435392  0.48015696  0.77382937     0.05100
C332        C  0.13378025  0.46607784  0.74420234     0.20600
H333        H  0.09075679  0.40923867  0.80783585     0.10300
C334        C  0.13662875  0.44081319  0.72746512    -0.15600
C335        C  0.13630148  0.44973541  0.70465541     0.03300
C336        C  0.13433746  0.48506983  0.69807442    -0.11000
C337        C  0.13087803  0.51030303  0.71499334    -0.01000
C338        C  0.13035597  0.50106079  0.73782362    -0.06100
H339        H  0.13878773  0.41379868  0.73221813     0.06300
H340        H  0.12854685  0.53738992  0.71050492     0.09700
Br341      Br  0.06878109  0.42063730  0.76122170    -0.05900
Br342      Br  0.20722488  0.46824507  0.81997102    -0.02800
Br343      Br  0.13623111  0.41159834  0.68388502     0.00100
Br344      Br  0.12341109  0.53689608  0.75968014    -0.04300
C345        C  0.85564589  0.49168540  0.88196183    -0.11700
C346        C  0.86949205  0.46364224  0.89441818     0.03800
C347        C  0.90545827  0.45811656  0.89475487    -0.12300
C348        C  0.92808872  0.48014885  0.88302744     0.18600
C349        C  0.91444259  0.50790154  0.87060484    -0.09300
C350        C  0.87868815  0.51352713  0.87021880    -0.02300
H351        H  0.91587376  0.43640249  0.90413999     0.05100
C352        C  0.96543327  0.47172830  0.88200850     0.20600
H353        H  0.86887079  0.53506500  0.86040827     0.10300
C354        C  0.97606778  0.44550511  0.86737817    -0.15600
C355        C  0.01095249  0.43632871  0.86556658     0.03300
C356        C  0.03614917  0.45324716  0.87891554    -0.11000
C357        C  0.02554354  0.48035304  0.89312758    -0.01000
C358        C  0.99041819  0.48963617  0.89475449    -0.06100
H359        H  0.95703208  0.43222759  0.85714781     0.06300
H360        H  0.04438817  0.49357069  0.90351791     0.09700
Br361      Br  0.94358814  0.53803502  0.85320454    -0.05900
Br362      Br  0.84139075  0.43274323  0.91201563    -0.02800
Br363      Br  0.02224091  0.40146485  0.84369123     0.00100
Br364      Br  0.97750265  0.52607788  0.91498740    -0.04300
C365        C  0.76528510  0.48983900  0.19969935    -0.11700
C366        C  0.78141166  0.50938176  0.21693875     0.03800
C367        C  0.77941296  0.49815180  0.23937903    -0.12300
C368        C  0.76191485  0.46757255  0.24511880     0.18600
C369        C  0.74590800  0.44812039  0.22813455    -0.09300
C370        C  0.74770878  0.45919908  0.20577196    -0.02300
H371        H  0.79177617  0.51325193  0.25244642     0.05100
C372        C  0.75961784  0.45681356  0.26898080     0.20600
H373        H  0.73490360  0.44372009  0.19308792     0.10300
C374        C  0.73447977  0.47206281  0.28277593    -0.15600
C375        C  0.73083183  0.46214423  0.30531728     0.03300
C376        C  0.75319078  0.43671168  0.31462660    -0.11000
C377        C  0.77803036  0.42111795  0.30052853    -0.01000
C378        C  0.78131649  0.43093564  0.27791963    -0.06100
H379        H  0.71722042  0.49148415  0.27583688     0.06300
H380        H  0.79545739  0.40163330  0.30718652     0.09700
Br381      Br  0.72068654  0.40652914  0.23482137    -0.05900
Br382      Br  0.80772307  0.55072403  0.21133531    -0.02800
Br383      Br  0.69336552  0.48314403  0.32174075     0.00100
Br384      Br  0.81602873  0.40867937  0.25987518    -0.04300
C385        C  0.75836212  0.53684060  0.94783188    -0.11700
C386        C  0.78327022  0.55841710  0.95817986     0.03800
C387        C  0.78414542  0.56129841  0.98171087    -0.12300
C388        C  0.76059175  0.54296025  0.99519713     0.18600
C389        C  0.73505934  0.52242576  0.98489596    -0.09300
C390        C  0.73413711  0.51947697  0.96147969    -0.02300
H391        H  0.80419359  0.57674047  0.98956534     0.05100
C392        C  0.76531764  0.54202122  0.01988337     0.20600
H393        H  0.71460670  0.50306084  0.95391063     0.10300
C394        C  0.75022179  0.56752277  0.03357831    -0.15600
C395        C  0.75170821  0.56486166  0.05714276     0.03300
C396        C  0.76839135  0.53619803  0.06718911    -0.11000
C397        C  0.78427697  0.51138065  0.05334315    -0.01000
C398        C  0.78306247  0.51421943  0.02994969    -0.06100
H399        H  0.73632175  0.58889605  0.02592717     0.06300
H400        H  0.79732906  0.48929746  0.06078696     0.09700
Br401      Br  0.70182857  0.49677109  0.00226850    -0.05900
Br402      Br  0.81883747  0.58179174  0.94143092    -0.02800
Br403      Br  0.72792131  0.59915649  0.07467515     0.00100
Br404      Br  0.80516801  0.47891840  0.01231126    -0.04300
C405        C  0.13148341  0.49247463  0.31335938    -0.11700
C406        C  0.10785536  0.50610064  0.29745035     0.03800
C407        C  0.10957823  0.49533488  0.27491048    -0.12300
C408        C  0.13452967  0.47115558  0.26788184     0.18600
C409        C  0.15801926  0.45766065  0.28367437    -0.09300
C410        C  0.15630822  0.46821947  0.30609930    -0.02300
H411        H  0.09131762  0.50576406  0.26281551     0.05100
C412        C  0.13661014  0.46073991  0.24396386     0.20600
H413        H  0.17465595  0.45733676  0.31796327     0.10300
C414        C  0.16333878  0.47417439  0.23057499    -0.15600
C415        C  0.16753170  0.46365547  0.20821615     0.03300
C416        C  0.14446400  0.43920556  0.19876224    -0.11000
C417        C  0.11784566  0.42557922  0.21236167    -0.01000
C418        C  0.11376849  0.43619078  0.23474314    -0.06100
H419        H  0.18140699  0.49260163  0.23771543     0.06300
H420        H  0.09973899  0.40698033  0.20547074     0.09700
Br421      Br  0.19249137  0.42411399  0.27542780    -0.05900
Br422      Br  0.07148012  0.53766974  0.30557018    -0.02800
Br423      Br  0.20658389  0.48222484  0.19215846     0.00100
Br424      Br  0.07717055  0.41598289  0.25225320    -0.04300
C425        C  0.13869764  0.39261006  0.06683653    -0.11700
C426        C  0.10690206  0.38314275  0.05684623     0.03800
C427        C  0.10398700  0.38211108  0.03333053    -0.12300
C428        C  0.13246207  0.39017135  0.01957497     0.18600
C429        C  0.16452512  0.39815411  0.02958096    -0.09300
C430        C  0.16735776  0.39961007  0.05299828    -0.02300
H431        H  0.07909564  0.37633267  0.02574155     0.05100
C432        C  0.12777072  0.39392309  0.99499705     0.20600
H433        H  0.19194124  0.40690096  0.06045576     0.10300
C434        C  0.12541219  0.42731628  0.98595565    -0.15600
C435        C  0.12424397  0.43269563  0.96271914     0.03300
C436        C  0.12577344  0.40404024  0.94786389    -0.11000
C437        C  0.12619660  0.37045183  0.95711326    -0.01000
C438        C  0.12734870  0.36526389  0.98045266    -0.06100
H439        H  0.12503122  0.44957233  0.99718197     0.06300
H440        H  0.12685818  0.34795177  0.94610866     0.09700
Br441      Br  0.20491401  0.40801058  0.01180261    -0.05900
Br442      Br  0.06590257  0.37497739  0.07440749    -0.02800
Br443      Br  0.11943408  0.47990840  0.95284861     0.00100
Br444      Br  0.13008814  0.31883963  0.99175107    -0.04300
C445        C  0.04763605  0.45015588  0.13096866    -0.11700
C446        C  0.03400941  0.47028904  0.11327188     0.03800
C447        C  0.99873381  0.47905297  0.11333042    -0.12300
C448        C  0.97686940  0.46781776  0.13077004     0.18600
C449        C  0.99048352  0.44749602  0.14829946    -0.09300
C450        C  0.02560032  0.43902922  0.14834374    -0.02300
H451        H  0.98819442  0.49422160  0.09959441     0.05100
C452        C  0.93973572  0.47675249  0.13031387     0.20600
H453        H  0.03567320  0.42309495  0.16187307     0.10300
C454        C  0.91768217  0.45956193  0.11529839    -0.15600
C455        C  0.88197873  0.46619905  0.11527803     0.03300
C456        C  0.86797338  0.49041152  0.13057694    -0.11000
C457        C  0.89039597  0.50805149  0.14524430    -0.01000
C458        C  0.92596247  0.50142528  0.14520232    -0.06100
H459        H  0.92830178  0.44079897  0.10363301     0.06300
H460        H  0.88017929  0.52695129  0.15697024     0.09700
Br461      Br  0.96181256  0.42922348  0.17192958    -0.05900
Br462      Br  0.06153146  0.48365452  0.08778801    -0.02800
Br463      Br  0.85427775  0.44307630  0.09310223     0.00100
Br464      Br  0.95481929  0.52689725  0.16560880    -0.04300
C465        C  0.52456808  0.24613504  0.37870952    -0.11700
C466        C  0.52575943  0.26642153  0.35905693     0.03800
C467        C  0.54656758  0.29615726  0.35844187    -0.12300
C468        C  0.56701963  0.30530639  0.37706668     0.18600
C469        C  0.56382860  0.28624497  0.39719657    -0.09300
C470        C  0.54252544  0.25704565  0.39789502    -0.02300
H471        H  0.54910097  0.31044793  0.34282735     0.05100
C472        C  0.59619277  0.32975962  0.37408787     0.20600
H473        H  0.54228049  0.24111141  0.41293187     0.10300
C474        C  0.59708379  0.36103187  0.38609940    -0.15600
C475        C  0.62733691  0.38125649  0.38670381     0.03300
C476        C  0.65723372  0.37023943  0.37488223    -0.11000
C477        C  0.65521450  0.34003214  0.36176360    -0.01000
C478        C  0.62539473  0.31973131  0.36147384    -0.06100
H479        H  0.57477652  0.36874440  0.39600267     0.06300
H480        H  0.67760409  0.33114457  0.35236252     0.09700
Br481      Br  0.59187850  0.29579073  0.42312142    -0.05900
Br482      Br  0.50296670  0.25204769  0.33199507    -0.02800
Br483      Br  0.62690558  0.42135673  0.40572018     0.00100
Br484      Br  0.62745299  0.27657278  0.34546125    -0.04300
C485        C  0.22886057  0.54510663  0.37712083    -0.11700
C486        C  0.23998867  0.56697601  0.35951820     0.03800
C487        C  0.27087006  0.58556469  0.36161399    -0.12300
C488        C  0.29114350  0.58288819  0.38110010     0.18600
C489        C  0.28147590  0.55895926  0.39792584    -0.09300
C490        C  0.25059515  0.54004192  0.39576236    -0.02300
H491        H  0.27796064  0.60388643  0.34856365     0.05100
C492        C  0.31781306  0.60984076  0.38503017     0.20600
H493        H  0.24237887  0.52326779  0.40939363     0.10300
C494        C  0.31032843  0.63570773  0.40081546    -0.15600
C495        C  0.32978381  0.66614818  0.40159183     0.03300
C496        C  0.35783381  0.67096037  0.38666164    -0.11000
C497        C  0.36704022  0.64405738  0.37197084    -0.01000
C498        C  0.34695024  0.61376395  0.37087830    -0.06100
H499        H  0.28779718  0.63319859  0.41162368     0.06300
H500        H  0.38847786  0.64749138  0.36037600     0.09700
Br501      Br  0.30868678  0.55277140  0.42459963    -0.05900
Br502      Br  0.21322658  0.57343202  0.33260102    -0.02800
Br503      Br  0.31573306  0.70113229  0.42265388     0.00100
Br504      Br  0.35898981  0.57919324  0.34911836    -0.04300
C505        C  0.43419547  0.86496262  0.38445898    -0.11700
C506        C  0.46342151  0.87667138  0.39668163     0.03800
C507        C  0.47139531  0.91216782  0.39714182    -0.12300
C508        C  0.45066501  0.93631433  0.38571054     0.18600
C509        C  0.42193720  0.92474209  0.37339658    -0.09300
C510        C  0.41399305  0.88954774  0.37281163    -0.02300
H511        H  0.49368186  0.92102965  0.40659666     0.05100
C512        C  0.45956228  0.97349979  0.38601025     0.20600
H513        H  0.39157133  0.88146561  0.36319851     0.10300
C514        C  0.47840470  0.98725188  0.36795463    -0.15600
C515        C  0.48480665  0.02278252  0.36647586     0.03300
C516        C  0.47224902  0.04529036  0.38332964    -0.11000
C517        C  0.45314641  0.03152511  0.40136408    -0.01000
C518        C  0.44689535  0.99582136  0.40284046    -0.06100
H519        H  0.48751062  0.97029998  0.35468311     0.06300
H520        H  0.44356866  0.04847441  0.41449059     0.09700
Br521      Br  0.39243833  0.95630469  0.35735411    -0.05900
Br522      Br  0.49243930  0.84630490  0.41400216    -0.02800
Br523      Br  0.50879304  0.03934190  0.34023043     0.00100
Br524      Br  0.42064398  0.97854605  0.42786376    -0.04300
C525        C  0.53678058  0.25386229  0.63829773    -0.11700
C526        C  0.52793105  0.27981491  0.62258780     0.03800
C527        C  0.54602328  0.31129808  0.62247404    -0.12300
C528        C  0.57354646  0.31713102  0.63744768     0.18600
C529        C  0.58126091  0.29179404  0.65381430    -0.09300
C530        C  0.56285264  0.26064252  0.65415265    -0.02300
H531        H  0.54015219  0.33041709  0.60966550     0.05100
C532        C  0.59730974  0.34679501  0.63369598     0.20600
H533        H  0.56996682  0.24095295  0.66632143     0.10300
C534        C  0.60187495  0.37193550  0.65054171    -0.15600
C535        C  0.62984462  0.39515925  0.64956556     0.03300
C536        C  0.65324923  0.39355690  0.63143805    -0.11000
C537        C  0.64655134  0.37090205  0.61359189    -0.01000
C538        C  0.61901560  0.34753542  0.61458580    -0.06100
H539        H  0.58515276  0.37186981  0.66519531     0.06300
H540        H  0.66474994  0.36919066  0.59971593     0.09700
Br541      Br  0.61899867  0.29670778  0.67463449    -0.05900
Br542      Br  0.49496168  0.27200274  0.59899017    -0.02800
Br543      Br  0.63733536  0.42601737  0.67428481     0.00100
Br544      Br  0.61554569  0.31408746  0.59081047    -0.04300
C545        C  0.51222169  0.15518265  0.56727673    -0.11700
C546        C  0.54453634  0.15406531  0.55590041     0.03800
C547        C  0.54553779  0.15335099  0.53226724    -0.12300
C548        C  0.51493917  0.15372486  0.51952965     0.18600
C549        C  0.48280525  0.15399175  0.53076858    -0.09300
C550        C  0.48168478  0.15498581  0.55426177    -0.02300
H551        H  0.57038781  0.15291453  0.52374272     0.05100
C552        C  0.51678528  0.15362207  0.49457102     0.20600
H553        H  0.45651237  0.15513440  0.56236890     0.10300
C554        C  0.52741163  0.12350481  0.48326007    -0.15600
C555        C  0.52639425  0.12163919  0.45967941     0.03300
C556        C  0.51436523  0.15016666  0.44708996    -0.11000
C557        C  0.50497622  0.18066907  0.45840127    -0.01000
C558        C  0.50658039  0.18274622  0.48188224    -0.06100
H559        H  0.53545026  0.10100958  0.49283934     0.06300
H560        H  0.49604990  0.20292489  0.44890419     0.09700
Br561      Br  0.43957999  0.15175311  0.51480882    -0.05900
Br562      Br  0.58833381  0.15471225  0.57119084    -0.02800
Br563      Br  0.53880579  0.07873241  0.44559180     0.00100
Br564      Br  0.49469917  0.22591825  0.49589781    -0.04300
C565        C  0.36030155  0.68108250  0.63964422    -0.11700
C566        C  0.36208444  0.65839369  0.62112570     0.03800
C567        C  0.34047181  0.62918032  0.62045530    -0.12300
C568        C  0.31743410  0.62206646  0.63819688     0.18600
C569        C  0.31831714  0.64283927  0.65760571    -0.09300
C570        C  0.33946221  0.67217342  0.65814082    -0.02300
H571        H  0.33981559  0.61342216  0.60539887     0.05100
C572        C  0.28807090  0.59808869  0.63457653     0.20600
H573        H  0.33798749  0.68933674  0.67252353     0.10300
C574        C  0.28751825  0.56526571  0.64481276    -0.15600
C575        C  0.25749120  0.54464116  0.64410754     0.03300
C576        C  0.22753215  0.55709242  0.63313136    -0.11000
C577        C  0.22879117  0.58936435  0.62227333    -0.01000
C578        C  0.25855558  0.60977344  0.62291971    -0.06100
H579        H  0.30996547  0.55632433  0.65410576     0.06300
H580        H  0.20604306  0.59925479  0.61369202     0.09700
Br581      Br  0.28806925  0.63447507  0.68269503    -0.05900
Br582      Br  0.38992596  0.66858329  0.59518401    -0.02800
Br583      Br  0.25765027  0.50156032  0.66018511     0.00100
Br584      Br  0.25664268  0.65470566  0.60905813    -0.04300
C585        C  0.37580115  0.78393153  0.56953114    -0.11700
C586        C  0.39822094  0.80378037  0.55587681     0.03800
C587        C  0.39465991  0.80320460  0.53245193    -0.12300
C588        C  0.36897835  0.78301627  0.52217264     0.18600
C589        C  0.34568531  0.76421166  0.53582709    -0.09300
C590        C  0.34904038  0.76499326  0.55934604    -0.02300
H591        H  0.41266217  0.81784800  0.52215024     0.05100
C592        C  0.36933978  0.77938489  0.49730114     0.20600
H593        H  0.33153324  0.74976458  0.56964225     0.10300
C594        C  0.38134029  0.74828058  0.48796587    -0.15600
C595        C  0.38581788  0.74477011  0.46471352     0.03300
C596        C  0.37794216  0.77267208  0.45020729    -0.11000
C597        C  0.36462286  0.80339332  0.45947026    -0.01000
C598        C  0.36069561  0.80704637  0.48284185    -0.06100
H599        H  0.38809753  0.72684976  0.49891540     0.06300
H600        H  0.35846368  0.82505797  0.44857508     0.09700
Br601      Br  0.30927993  0.73684806  0.52300082    -0.05900
Br602      Br  0.43379442  0.83262611  0.56844245    -0.02800
Br603      Br  0.40213925  0.70095148  0.45372405     0.00100
Br604      Br  0.34388636  0.85030002  0.49433049    -0.04300
C605        C  0.42304921  0.87926339  0.63144505    -0.11700
C606        C  0.40037031  0.90422751  0.62206629     0.03800
C607        C  0.40987484  0.93912011  0.62171417    -0.12300
C608        C  0.44177754  0.94990133  0.63042669     0.18600
C609        C  0.46461333  0.92509636  0.63960126    -0.09300
C610        C  0.45531125  0.89005483  0.63979884    -0.02300
H611        H  0.39229347  0.95802175  0.61450468     0.05100
C612        C  0.45018212  0.98724862  0.63018113     0.20600
H613        H  0.47285593  0.87134233  0.64723640     0.10300
C614        C  0.43053809  0.01004474  0.64348125    -0.15600
C615        C  0.43818330  0.04548328  0.64403473     0.03300
C616        C  0.46598277  0.05845770  0.63114995    -0.11000
C617        C  0.48497999  0.03575153  0.61742081    -0.01000
C618        C  0.47698034  0.00051538  0.61658790    -0.06100
H619        H  0.40961232  0.00007912  0.65381215     0.06300
H620        H  0.50614575  0.04553902  0.60721636     0.09700
Br621      Br  0.50775815  0.93799878  0.65329064    -0.05900
Br622      Br  0.35673778  0.89249306  0.60846879    -0.02800
Br623      Br  0.41174126  0.07440564  0.66392051     0.00100
Br624      Br  0.50263700  0.97182331  0.59612515    -0.04300
C625        C  0.52227393  0.67007873  0.87941512    -0.11700
C626        C  0.54052565  0.65787894  0.86047852     0.03800
C627        C  0.55986995  0.62735598  0.86196537    -0.12300
C628        C  0.56142252  0.60864787  0.88219033     0.18600
C629        C  0.54016307  0.61888343  0.90033503    -0.09300
C630        C  0.52058033  0.64939617  0.89880005    -0.02300
H631        H  0.57601957  0.61980348  0.84786531     0.05100
C632        C  0.59098719  0.58462773  0.88544736     0.20600
H633        H  0.50641782  0.65841687  0.91341954     0.10300
C634        C  0.61755466  0.59523517  0.89993856    -0.15600
C635        C  0.64955889  0.57845821  0.90003209     0.03300
C636        C  0.65563578  0.55045201  0.88535977    -0.11000
C637        C  0.62831792  0.53801349  0.87204871    -0.01000
C638        C  0.59610303  0.55507382  0.87192449    -0.06100
H639        H  0.61404783  0.61796016  0.91037584     0.06300
H640        H  0.63259198  0.51628754  0.86087429     0.09700
Br641      Br  0.53936785  0.59347578  0.92807661    -0.05900
Br642      Br  0.54152726  0.68326479  0.83268158    -0.02800
Br643      Br  0.68443281  0.59552188  0.92023656     0.00100
Br644      Br  0.56018107  0.53800183  0.85266205    -0.04300
C645        C  0.46750207  0.77348650  0.81779237    -0.11700
C646        C  0.48388156  0.79552725  0.80194091     0.03800
C647        C  0.47182026  0.79692169  0.77969892    -0.12300
C648        C  0.44341822  0.77697392  0.77277173     0.18600
C649        C  0.42671451  0.75547858  0.78852940    -0.09300
C650        C  0.43870430  0.75391131  0.81072913    -0.02300
H651        H  0.48474162  0.81364280  0.76767851     0.05100
C652        C  0.43272894  0.77752701  0.74880435     0.20600
H653        H  0.42539745  0.73711232  0.82251636     0.10300
C654        C  0.44013826  0.74870047  0.73532221    -0.15600
C655        C  0.43141240  0.74834886  0.71248084     0.03300
C656        C  0.41483319  0.77725685  0.70267197    -0.11000
C657        C  0.40672285  0.80585910  0.71628920    -0.01000
C658        C  0.41578656  0.80628218  0.73915086    -0.06100
H659        H  0.45289872  0.72634740  0.74263141     0.06300
H660        H  0.39397771  0.82824196  0.70901670     0.09700
Br661      Br  0.38688490  0.72839158  0.78057949    -0.05900
Br662      Br  0.52149641  0.82588200  0.80953700    -0.02800
Br663      Br  0.44118370  0.70694854  0.69578999     0.00100
Br664      Br  0.40424155  0.84640260  0.75660993    -0.04300
C665        C  0.35657373  0.24506404  0.87809551    -0.11700
C666        C  0.33558230  0.25560694  0.85993792     0.03800
C667        C  0.31566557  0.28574486  0.86162287    -0.12300
C668        C  0.31618524  0.30598351  0.88121558     0.18600
C669        C  0.33863552  0.29638772  0.89893458    -0.09300
C670        C  0.35884674  0.26629516  0.89715939    -0.02300
H671        H  0.29832291  0.29245774  0.84796374     0.05100
C672        C  0.28942069  0.33343562  0.88385590     0.20600
H673        H  0.37471823  0.25834695  0.91128765     0.10300
C674        C  0.26421082  0.32919282  0.90065486    -0.15600
C675        C  0.23476387  0.35020709  0.90127963     0.03300
C676        C  0.22976718  0.37597815  0.88479851    -0.11000
C677        C  0.25586097  0.38184078  0.86877641    -0.01000
C678        C  0.28555771  0.36072394  0.86817548    -0.06100
H679        H  0.26651603  0.30821477  0.91269240     0.06300
H680        H  0.25227232  0.40153167  0.85597888     0.09700
Br681      Br  0.34151200  0.32256009  0.92627450    -0.05900
Br682      Br  0.33262558  0.22931787  0.83260725    -0.02800
Br683      Br  0.20136710  0.34180172  0.92460121     0.00100
Br684      Br  0.31952592  0.36929518  0.84523086    -0.04300
C685        C  0.42315194  0.15079491  0.81581190    -0.11700
C686        C  0.41170178  0.12649768  0.79968214     0.03800
C687        C  0.42448967  0.12796563  0.77758615    -0.12300
C688        C  0.44917646  0.15284673  0.77118475     0.18600
C689        C  0.46078155  0.17688739  0.78728245    -0.09300
C690        C  0.44777618  0.17573329  0.80924034    -0.02300
H691        H  0.41534707  0.10935267  0.76534280     0.05100
C692        C  0.46167391  0.15408125  0.74753044     0.20600
H693        H  0.45721694  0.19445934  0.82131384     0.10300
C694        C  0.45437271  0.18344259  0.73445105    -0.15600
C695        C  0.46472854  0.18538322  0.71193653     0.03300
C696        C  0.48228033  0.15729233  0.70186538    -0.11000
C697        C  0.49054640  0.12827787  0.71509558    -0.01000
C698        C  0.48032379  0.12646606  0.73774734    -0.06100
H699        H  0.44037603  0.20498493  0.74180418     0.06300
H700        H  0.50406879  0.10653196  0.70763184     0.09700
Br701      Br  0.49550371  0.21094030  0.78044025    -0.05900
Br702      Br  0.38083251  0.08914334  0.80697368    -0.02800
Br703      Br  0.45550872  0.22774555  0.69603363     0.00100
Br704      Br  0.49275448  0.08600976  0.75470724    -0.04300
C705        C  0.42869830  0.05019675  0.88528868    -0.11700
C706        C  0.45761019  0.03791106  0.87317773     0.03800
C707        C  0.46612280  0.00266146  0.87396558    -0.12300
C708        C  0.44594367  0.97938388  0.88653024     0.18600
C709        C  0.41745683  0.99177568  0.89894343    -0.09300
C710        C  0.40891884  0.02689857  0.89812445    -0.02300
H711        H  0.48796153  0.99319422  0.86426395     0.05100
C712        C  0.45448073  0.94215168  0.88619227     0.20600
H713        H  0.38662197  0.03608260  0.90750715     0.10300
C714        C  0.48319282  0.93020131  0.89836809    -0.15600
C715        C  0.49151717  0.89494958  0.89876866     0.03300
C716        C  0.47070507  0.87110824  0.88693698    -0.11000
C717        C  0.44193960  0.88312139  0.87481458    -0.01000
C718        C  0.43400324  0.91841972  0.87412028    -0.06100
H719        H  0.49897064  0.94834392  0.90774268     0.06300
H720        H  0.42619496  0.86510150  0.86531148     0.09700
Br721      Br  0.38958231  0.96164643  0.91723667    -0.05900
Br722      Br  0.48414048  0.06749242  0.85373299    -0.02800
Br723      Br  0.53049037  0.88060527  0.91659585     0.00100
Br724      Br  0.39587343  0.93323237  0.85575513    -0.04300
C725        C  0.54547126  0.67656523  0.13125908    -0.11700
C726        C  0.57735062  0.67439401  0.11960711     0.03800
C727        C  0.59567763  0.64327538  0.11930806    -0.12300
C728        C  0.58290264  0.61393913  0.13041211     0.18600
C729        C  0.55023184  0.61537807  0.14093602    -0.09300
C730        C  0.53152222  0.64655029  0.14110510    -0.02300
H731        H  0.62080437  0.64231643  0.11112111     0.05100
C732        C  0.60682222  0.58447995  0.13348393     0.20600
H733        H  0.50683729  0.64772306  0.14980217     0.10300
C734        C  0.62487936  0.58229491  0.15387294    -0.15600
C735        C  0.65496153  0.56235461  0.15556952     0.03300
C736        C  0.66702911  0.54375999  0.13675403    -0.11000
C737        C  0.64705123  0.54311424  0.11705807    -0.01000
C738        C  0.61722590  0.56367738  0.11524101    -0.06100
H739        H  0.61716983  0.59837672  0.16795039     0.06300
H740        H  0.65628976  0.52912889  0.10243481     0.09700
Br741      Br  0.53095881  0.57567282  0.15570441    -0.05900
Br742      Br  0.59722407  0.71285062  0.10355643    -0.02800
Br743      Br  0.68032063  0.56355637  0.18335099     0.00100
Br744      Br  0.59322363  0.56510779  0.08703480    -0.04300
C745        C  0.47800736  0.76256110  0.20201383    -0.11700
C746        C  0.49814494  0.77860957  0.21909236     0.03800
C747        C  0.48731629  0.77721601  0.24167864    -0.12300
C748        C  0.45691425  0.75982516  0.24797620     0.18600
C749        C  0.43732017  0.74315203  0.23128850    -0.09300
C750        C  0.44775861  0.74467462  0.20868362    -0.02300
H751        H  0.50265056  0.79001389  0.25445349     0.05100
C752        C  0.44555420  0.76001835  0.27193002     0.20600
H753        H  0.43184203  0.73181851  0.19625330     0.10300
C754        C  0.42466844  0.78719829  0.27982095    -0.15600
C755        C  0.41347796  0.78830306  0.30231535     0.03300
C756        C  0.42313734  0.76173051  0.31747798    -0.11000
C757        C  0.44432507  0.73468035  0.30949718    -0.01000
C758        C  0.45535761  0.73360500  0.28698691    -0.06100
H759        H  0.41730980  0.80787140  0.26844543     0.06300
H760        H  0.45230977  0.71417826  0.32082248     0.09700
Br761      Br  0.39586512  0.71818624  0.23871514    -0.05900
Br762      Br  0.54029997  0.80359750  0.21332033    -0.02800
Br763      Br  0.38743189  0.82817001  0.31165128     0.00100
Br764      Br  0.48395383  0.69569578  0.27747710    -0.04300
C765        C  0.51772615  0.77553741  0.94958403    -0.11700
C766        C  0.49381472  0.79237766  0.96392060     0.03800
C767        C  0.49963592  0.79340402  0.98710718    -0.12300
C768        C  0.52907044  0.77801031  0.99659992     0.18600
C769        C  0.55379732  0.76245922  0.98233503    -0.09300
C770        C  0.54816319  0.76156919  0.95896220    -0.02300
H771        H  0.48059920  0.80566616  0.99791746     0.05100
C772        C  0.53117011  0.77594408  0.02149478     0.20600
H773        H  0.56702251  0.74896688  0.94820589     0.10300
C774        C  0.52089561  0.74519002  0.03211836    -0.15600
C775        C  0.51603067  0.74384332  0.05544897     0.03300
C776        C  0.52129069  0.77374866  0.06865560    -0.11000
C777        C  0.53372128  0.80394751  0.05818834    -0.01000
C778        C  0.53843356  0.80526627  0.03476084    -0.06100
H779        H  0.51546436  0.72241194  0.02210011     0.06300
H780        H  0.53850590  0.82694381  0.06812339     0.09700
Br781      Br  0.59527412  0.74201663  0.99415413    -0.05900
Br782      Br  0.45315068  0.81556850  0.95285320    -0.02800
Br783      Br  0.50302422  0.70017918  0.06843978     0.00100
Br784      Br  0.55409643  0.84770288  0.02141962    -0.04300
C785        C  0.24079860  0.37231033  0.13634343    -0.11700
C786        C  0.26846005  0.38159783  0.12192385     0.03800
C787        C  0.29903519  0.36178376  0.12184092    -0.12300
C788        C  0.30226286  0.33228136  0.13555571     0.18600
C789        C  0.27516748  0.32394298  0.15054215    -0.09300
C790        C  0.24513314  0.34404273  0.15096878    -0.02300
H791        H  0.31956471  0.36820575  0.11009722     0.05100
C792        C  0.33137491  0.30767347  0.13222525     0.20600
H793        H  0.22427910  0.33647923  0.16218188     0.10300
C794        C  0.35339043  0.29971998  0.15037084    -0.15600
C795        C  0.37368510  0.26958421  0.15013760     0.03300
C796        C  0.37286635  0.24768893  0.13129633    -0.11000
C797        C  0.35388337  0.25763143  0.11226566    -0.01000
C798        C  0.33311952  0.28729163  0.11258506    -0.06100
H799        H  0.35230476  0.31519636  0.16554041     0.06300
H800        H  0.35278836  0.24060207  0.09780505     0.09700
Br801      Br  0.27590857  0.28315401  0.16911812    -0.05900
Br802      Br  0.26461421  0.41809017  0.10011337    -0.02800
Br803      Br  0.39825644  0.25672199  0.17689944     0.00100
Br804      Br  0.30388233  0.29561955  0.08700239    -0.04300
C805        C  0.42107438  0.14531157  0.19861593    -0.11700
C806        C  0.44576322  0.12118200  0.20643420     0.03800
C807        C  0.45552727  0.12095525  0.22913175    -0.12300
C808        C  0.44108693  0.14458614  0.24439783     0.18600
C809        C  0.41640833  0.16879660  0.23658084    -0.09300
C810        C  0.40628341  0.16872119  0.21390074    -0.02300
H811        H  0.47435267  0.10211900  0.23493842     0.05100
C812        C  0.45223532  0.14361150  0.26832453     0.20600
H813        H  0.38754828  0.18761173  0.20805958     0.10300
C814        C  0.48588768  0.15424977  0.27410679    -0.15600
C815        C  0.49697290  0.15437942  0.29661780     0.03300
C816        C  0.47401620  0.14387708  0.31389553    -0.11000
C817        C  0.44063899  0.13244131  0.30788433    -0.01000
C818        C  0.42985900  0.13183440  0.28541360    -0.06100
H819        H  0.50345416  0.16300664  0.26104750     0.06300
H820        H  0.42281287  0.12356722  0.32076228     0.09700
Br821      Br  0.39719372  0.20350273  0.25602060    -0.05900
Br822      Br  0.46572066  0.08699796  0.18689308    -0.02800
Br823      Br  0.54290243  0.17104749  0.30262461     0.00100
Br824      Br  0.38472950  0.11358429  0.27880554    -0.04300
C825        C  0.37626405  0.14864624  0.06621773    -0.11700
C826        C  0.39081231  0.17454754  0.05228245     0.03800
C827        C  0.38568314  0.17343702  0.02900404    -0.12300
C828        C  0.36602899  0.14699378  0.01919525     0.18600
C829        C  0.35021077  0.12203221  0.03308678    -0.09300
C830        C  0.35519851  0.12310551  0.05644401    -0.02300
H831        H  0.39775321  0.19288441  0.01841462     0.05100
C832        C  0.36560647  0.14399703  0.99439416     0.20600
H833        H  0.34358833  0.10322257  0.06689737     0.10300
C834        C  0.39000023  0.12223083  0.98415411    -0.15600
C835        C  0.39353698  0.12140682  0.96077645     0.03300
C836        C  0.37214876  0.14232870  0.94715652    -0.11000
C837        C  0.34664592  0.16305890  0.95731536    -0.01000
C838        C  0.34351416  0.16426690  0.98084738    -0.06100
H839        H  0.40711638  0.10658678  0.99446030     0.06300
H840        H  0.33031294  0.17951790  0.94702113     0.09700
Br841      Br  0.32232995  0.08571199  0.02069247    -0.05900
Br842      Br  0.41697242  0.21274276  0.06406818    -0.02800
Br843      Br  0.42829348  0.09146747  0.94821894     0.00100
Br844      Br  0.30983601  0.19477618  0.99389726    -0.04300
C845        C  0.45784512  0.86519355  0.13578834    -0.11700
C846        C  0.46812191  0.88905945  0.15245943     0.03800
C847        C  0.45788576  0.92365069  0.15093767    -0.12300
C848        C  0.43702735  0.93511045  0.13316614     0.18600
C849        C  0.42522688  0.91109216  0.11709889    -0.09300
C850        C  0.43559518  0.87631295  0.11852336    -0.02300
H851        H  0.46648254  0.94185016  0.16362005     0.05100
C852        C  0.42856078  0.97239347  0.13174992     0.20600
H853        H  0.42726433  0.85824243  0.10570013     0.10300
C854        C  0.44529031  0.99314844  0.11566380    -0.15600
C855        C  0.43996544  0.02905413  0.11510907     0.03300
C856        C  0.41769079  0.04470127  0.13099470    -0.11000
C857        C  0.40052961  0.02364969  0.14678743    -0.01000
C858        C  0.40587688  0.98786842  0.14730057    -0.06100
H859        H  0.46274094  0.98136160  0.10359697     0.06300
H860        H  0.38310622  0.03513529  0.15899523     0.09700
Br861      Br  0.39497242  0.92477880  0.09309784    -0.05900
Br862      Br  0.49507882  0.87570594  0.17819692    -0.02800
Br863      Br  0.46208105  0.05489466  0.09150866     0.00100
Br864      Br  0.38132455  0.96100740  0.16933828    -0.04300
loop_ 
_geom_bond_atom_site_label_1 
_geom_bond_atom_site_label_2 
_geom_bond_distance 
_geom_bond_site_symmetry_2 
_ccdc_geom_bond_type 
O1           Ni9   1.928       .  S
O1           C11   1.284       .  A
O2           Ni9   1.931       .  S
O2           C12   1.282       .  A
O3           Ni9   1.916       .  S
O3           C13   1.280       .  A
O4           Ni9   1.912       .  S
O4           C14   1.280       .  A
O5          Ni10   1.930       .  S
O5           C14   1.284       .  A
O6          Ni10   1.932       .  S
O6           C13   1.283       .  A
O7          Ni10   1.903       .  S
O7           C12   1.278       .  A
O8          Ni10   1.907       .  S
O8           C11   1.279       .  A
Ni9         Ni10   2.389       .  S
C11         C856   1.480       .  S
C12         C796   1.467       .  S
C13         C805   1.479       .  S
C14         C825   1.481       .  S
O15         Ni23   1.932       .  S
O15          C25   1.284       .  A
O16         Ni23   1.927       .  S
O16          C26   1.283       .  A
O17         Ni23   1.926       .  S
O17          C27   1.284       .  A
O18         Ni23   1.920       .  S
O18          C28   1.282       .  A
O19         Ni24   1.930       .  S
O19          C28   1.283       .  A
O20         Ni24   1.931       .  S
O20          C27   1.283       .  A
O21         Ni24   1.904       .  S
O21          C26   1.278       .  A
O22         Ni24   1.903       .  S
O22          C25   1.278       .  A
Ni23        Ni24   2.385       .  S
C25         C845   1.477       .  S
C26         C725   1.475       .  S
C27         C745   1.504       .  S
C28         C776   1.483       .  S
O29         Ni37   1.928       .  S
O29          C39   1.283       .  A
O30         Ni37   1.932       .  S
O30          C40   1.284       .  A
O31         Ni37   1.906       .  S
O31          C41   1.278       .  A
O32         Ni37   1.908       .  S
O32          C42   1.279       .  A
O33         Ni38   1.933       .  S
O33          C42   1.285       .  A
O34         Ni38   1.934       .  S
O34          C41   1.284       .  A
O35         Ni38   1.904       .  S
O35          C40   1.278       .  A
O36         Ni38   1.904       .  S
O36          C39   1.278       .  A
Ni37        Ni38   2.388       .  S
C39         C705   1.472       .  S
C40         C665   1.475       .  S
C41         C836   1.474       .  S
C42         C685   1.487       .  S
O43         Ni51   1.923       .  S
O43          C53   1.283       .  A
O44         Ni51   1.929       .  S
O44          C54   1.282       .  A
O45         Ni51   1.913       .  S
O45          C55   1.280       .  A
O46         Ni51   1.915       .  S
O46          C56   1.281       .  A
O47         Ni52   1.930       .  S
O47          C56   1.284       .  A
O48         Ni52   1.934       .  S
O48          C55   1.284       .  A
O49         Ni52   1.906       .  S
O49          C54   1.279       .  A
O50         Ni52   1.905       .  S
O50          C53   1.278       .  A
Ni51        Ni52   2.387       .  S
C53         C716   1.470       .  S
C54         C625   1.472       .  S
C55         C765   1.484       .  S
C56         C645   1.491       .  S
O57         Ni65   1.930       .  S
O57          C67   1.284       .  A
O58         Ni65   1.933       .  S
O58          C68   1.284       .  A
O59         Ni65   1.913       .  S
O59          C69   1.280       .  A
O60         Ni65   1.916       .  S
O60          C70   1.280       .  A
O61         Ni66   1.929       .  S
O61          C70   1.283       .  A
O62         Ni66   1.933       .  S
O62          C69   1.284       .  A
O63         Ni66   1.904       .  S
O63          C68   1.279       .  A
O64         Ni66   1.903       .  S
O64          C67   1.277       .  A
Ni65        Ni66   2.388       .  S
C67         C605   1.479       .  S
C68         C565   1.475       .  S
C69         C585   1.479       .  S
C70         C656   1.481       .  S
O71         Ni79   1.928       .  S
O71          C81   1.283       .  A
O72         Ni79   1.928       .  S
O72          C82   1.283       .  A
O73         Ni79   1.910       .  S
O73          C83   1.280       .  A
O74         Ni79   1.907       .  S
O74          C84   1.279       .  A
O75         Ni80   1.935       .  S
O75          C84   1.285       .  A
O76         Ni80   1.935       .  S
O76          C83   1.285       .  A
O77         Ni80   1.908       .  S
O77          C82   1.279       .  A
O78         Ni80   1.903       .  S
O78          C81   1.278       .  A
Ni79        Ni80   2.386       .  S
C81         C616   1.472       .  S
C82         C525   1.479       .  S
C83         C545   1.495       .  S
C84         C696   1.480       .  S
O85         Ni93   1.937       .  S
O85          C95   1.285       .  A
O86         Ni93   1.935       .  S
O86          C96   1.284       .  A
O87         Ni93   1.920       .  S
O87          C97   1.281       .  A
O88         Ni93   1.916       .  S
O88          C98   1.280       .  A
O89         Ni94   1.932       .  S
O89          C98   1.284       .  A
O90         Ni94   1.936       .  S
O90          C97   1.285       .  A
O91         Ni94   1.906       .  S
O91          C96   1.278       .  A
O92         Ni94   1.899       .  S
O92          C95   1.278       .  A
Ni93        Ni94   2.386       .  S
C95         C505   1.489       .  S
C96         C496   1.475       .  S
C97         C756   1.492       .  S
C98         C596   1.482       .  S
O99        Ni107   1.933       .  S
O99         C109   1.285       .  A
O100       Ni107   1.931       .  S
O100        C110   1.283       .  A
O101       Ni107   1.913       .  S
O101        C111   1.280       .  A
O102       Ni107   1.910       .  S
O102        C112   1.279       .  A
O103       Ni108   1.935       .  S
O103        C112   1.285       .  A
O104       Ni108   1.935       .  S
O104        C111   1.285       .  A
O105       Ni108   1.901       .  S
O105        C110   1.277       .  A
O106       Ni108   1.902       .  S
O106        C109   1.277       .  A
Ni107      Ni108   2.389       .  S
C109        C516   1.475       .  S
C110        C465   1.466       .  S
C111        C816   1.489       .  S
C112        C556   1.479       .  S
O113       Ni121   1.930       .  S
O113        C123   1.284       .  A
O114       Ni121   1.931       .  S
O114        C124   1.283       .  A
O115       Ni121   1.910       .  S
O115        C125   1.279       .  A
O116       Ni121   1.914       .  S
O116        C126   1.280       .  A
O117       Ni122   1.926       .  S
O117        C126   1.284       .  A
O118       Ni122   1.929       .  S
O118        C125   1.283       .  A
O119       Ni122   1.904       .  S
O119        C124   1.280       .  A
O120       Ni122   1.895       .  S
O120        C123   1.277       .  A
Ni121      Ni122   2.388       .  S
C123        C445   1.470       .  S
C124        C785   1.483       .  S
C125        C425   1.476       .  S
C126        C416   1.485       .  S
O127       Ni135   1.925       .  S
O127        C137   1.283       .  A
O128       Ni135   1.930       .  S
O128        C138   1.283       .  A
O129       Ni135   1.906       .  S
O129        C139   1.279       .  A
O130       Ni135   1.911       .  S
O130        C140   1.281       .  A
O131       Ni136   1.930       .  S
O131        C140   1.283       .  A
O132       Ni136   1.934       .  S
O132        C139   1.284       .  A
O133       Ni136   1.899       .  S
O133        C138   1.277       .  A
O134       Ni136   1.903       .  S
O134        C137   1.278       .  A
Ni135      Ni136   2.387       .  S
C137        C456   1.476       .  S
C138        C736   1.468       .  S
C139        C396   1.479       .  S
C140        C365   1.493       .  S
O141       Ni149   1.938       .  S
O141        C151   1.286       .  A
O142       Ni149   1.938       .  S
O142        C152   1.284       .  A
O143       Ni149   1.909       .  S
O143        C153   1.279       .  A
O144       Ni149   1.908       .  S
O144        C154   1.278       .  A
O145       Ni150   1.930       .  S
O145        C154   1.285       .  A
O146       Ni150   1.933       .  S
O146        C153   1.285       .  A
O147       Ni150   1.904       .  S
O147        C152   1.278       .  A
O148       Ni150   1.897       .  S
O148        C151   1.276       .  A
Ni149      Ni150   2.386       .  S
C151        C356   1.482       .  S
C152        C676   1.475       .  S
C153        C325   1.482       .  S
C154        C436   1.488       .  S
O155       Ni163   1.934       .  S
O155        C165   1.285       .  A
O156       Ni163   1.933       .  S
O156        C166   1.283       .  A
O157       Ni163   1.916       .  S
O157        C167   1.280       .  A
O158       Ni163   1.912       .  S
O158        C168   1.281       .  A
O159       Ni164   1.928       .  S
O159        C168   1.283       .  A
O160       Ni164   1.933       .  S
O160        C167   1.285       .  A
O161       Ni164   1.903       .  S
O161        C166   1.278       .  A
O162       Ni164   1.901       .  S
O162        C165   1.278       .  A
Ni163      Ni164   2.385       .  S
C165        C345   1.487       .  S
C166        C636   1.474       .  S
C167        C316   1.491       .  S
C168        C385   1.484       .  S
O169       Ni177   1.936       .  S
O169        C179   1.285       .  A
O170       Ni177   1.937       .  S
O170        C180   1.284       .  A
O171       Ni177   1.912       .  S
O171        C181   1.278       .  A
O172       Ni177   1.908       .  S
O172        C182   1.279       .  A
O173       Ni178   1.937       .  S
O173        C182   1.285       .  A
O174       Ni178   1.936       .  S
O174        C181   1.286       .  A
O175       Ni178   1.897       .  S
O175        C180   1.276       .  A
O176       Ni178   1.898       .  S
O176        C179   1.278       .  A
Ni177      Ni178   2.385       .  S
C179        C285   1.489       .  S
C180        C536   1.468       .  S
C181        C305   1.492       .  S
C182        C265   1.485       .  S
O183       Ni191   1.934       .  S
O183        C193   1.284       .  A
O184       Ni191   1.933       .  S
O184        C194   1.284       .  A
O185       Ni191   1.906       .  S
O185        C195   1.277       .  A
O186       Ni191   1.907       .  S
O186        C196   1.279       .  A
O187       Ni192   1.937       .  S
O187        C196   1.285       .  A
O188       Ni192   1.935       .  S
O188        C195   1.286       .  A
O189       Ni192   1.904       .  S
O189        C194   1.279       .  A
O190       Ni192   1.901       .  S
O190        C193   1.276       .  A
Ni191      Ni192   2.387       .  S
C193        C296   1.468       .  S
C194        C576   1.478       .  S
C195        C336   1.492       .  S
C196        C256   1.481       .  S
O197       Ni205   1.928       .  S
O197        C207   1.283       .  A
O198       Ni205   1.933       .  S
O198        C208   1.284       .  A
O199       Ni205   1.910       .  S
O199        C209   1.280       .  A
O200       Ni205   1.909       .  S
O200        C210   1.278       .  A
O201       Ni206   1.932       .  S
O201        C210   1.285       .  A
O202       Ni206   1.932       .  S
O202        C209   1.283       .  A
O203       Ni206   1.899       .  S
O203        C208   1.279       .  A
O204       Ni206   1.899       .  S
O204        C207   1.277       .  A
Ni205      Ni206   2.386       .  S
C207        C236   1.470       .  S
C208        C476   1.485       .  S
C209        C276   1.477       .  S
C210        C376   1.489       .  S
O211       Ni219   1.930       .  S
O211        C221   1.284       .  A
O212       Ni219   1.934       .  S
O212        C222   1.284       .  A
O213       Ni219   1.909       .  S
O213        C223   1.279       .  A
O214       Ni219   1.907       .  S
O214        C224   1.280       .  A
O215       Ni220   1.933       .  S
O215        C224   1.284       .  A
O216       Ni220   1.935       .  S
O216        C223   1.285       .  A
O217       Ni220   1.902       .  S
O217        C222   1.278       .  A
O218       Ni220   1.901       .  S
O218        C221   1.277       .  A
Ni219      Ni220   2.387       .  S
C221        C225   1.474       .  S
C222        C485   1.475       .  S
C223        C245   1.481       .  S
C224        C405   1.485       .  S
C225        C226   1.409       .  A
C225        C230   1.405       .  A
C226        C227   1.400   1_455  A
C226       Br242   1.919       .  S
C227        C228   1.404       .  A
C227        H231   1.083       .  S
C228        C232   1.475       .  S
C228        C229   1.405       .  A
C229        C230   1.396   1_655  A
C229       Br241   1.919       .  S
C230        H233   1.084       .  S
C232        C234   1.399       .  A
C232        C238   1.410       .  A
C234        C235   1.395       .  A
C234        H239   1.084       .  S
C235        C236   1.411       .  A
C235       Br243   1.922       .  S
C236        C237   1.402       .  A
C237        C238   1.400       .  A
C237        H240   1.084       .  S
C238       Br244   1.918       .  S
C245        C246   1.414       .  A
C245        C250   1.405       .  A
C246        C247   1.399       .  A
C246       Br262   1.922       .  S
C247        C248   1.401       .  A
C247        H251   1.084       .  S
C248        C252   1.482       .  S
C248        C249   1.408       .  A
C249        C250   1.404       .  A
C249       Br261   1.916       .  S
C250        H253   1.084       .  S
C252        C254   1.400       .  A
C252        C258   1.409       .  A
C254        C255   1.399       .  A
C254        H259   1.084       .  S
C255        C256   1.414       .  A
C255       Br263   1.922       .  S
C256        C257   1.405       .  A
C257        C258   1.404       .  A
C257        H260   1.084       .  S
C258       Br264   1.917       .  S
C265        C266   1.415       .  A
C265        C270   1.407       .  A
C266        C267   1.398       .  A
C266       Br282   1.922       .  S
C267        C268   1.399       .  A
C267        H271   1.084       .  S
C268        C272   1.481       .  S
C268        C269   1.408       .  A
C269        C270   1.406       .  A
C269       Br281   1.917       .  S
C270        H273   1.083       .  S
C272        C274   1.400       .  A
C272        C278   1.409       .  A
C274        C275   1.396       .  A
C274        H279   1.084       .  S
C275        C276   1.411       .  A
C275       Br283   1.921       .  S
C276        C277   1.405       .  A
C277        C278   1.406       .  A
C277        H280   1.083       .  S
C278       Br284   1.916       .  S
C285        C286   1.416       .  A
C285        C290   1.411       .  A
C286        C287   1.403       .  A
C286       Br302   1.920       .  S
C287        C288   1.402       .  A
C287        H291   1.083       .  S
C288        C292   1.476       .  S
C288        C289   1.402       .  A
C289        C290   1.395       .  A
C289       Br301   1.919       .  S
C290        H293   1.083       .  S
C292        C294   1.401       .  A
C292        C298   1.408       .  A
C294        C295   1.398   1_655  A
C294        H299   1.084       .  S
C295        C296   1.409       .  A
C295       Br303   1.920       .  S
C296        C297   1.401       .  A
C297        C298   1.401   1_455  A
C297        H300   1.084       .  S
C298       Br304   1.917       .  S
C305        C306   1.419       .  A
C305        C310   1.408       .  A
C306        C307   1.402       .  A
C306       Br322   1.922       .  S
C307        C308   1.400       .  A
C307        H311   1.083       .  S
C308        C312   1.484       .  S
C308        C309   1.407       .  A
C309        C310   1.403       .  A
C309       Br321   1.917       .  S
C310        H313   1.083       .  S
C312        C314   1.400       .  A
C312        C318   1.407       .  A
C314        C315   1.402       .  A
C314        H319   1.083       .  S
C315        C316   1.418       .  A
C315       Br323   1.921       .  S
C316        C317   1.408       .  A
C317        C318   1.404       .  A
C317        H320   1.083       .  S
C318       Br324   1.917       .  S
C325        C326   1.413       .  A
C325        C330   1.405       .  A
C326        C327   1.400       .  A
C326       Br342   1.921       .  S
C327        C328   1.402       .  A
C327        H331   1.083       .  S
C328        C332   1.484       .  S
C328        C329   1.410       .  A
C329        C330   1.402       .  A
C329       Br341   1.919       .  S
C330        H333   1.083       .  S
C332        C334   1.399       .  A
C332        C338   1.409       .  A
C334        C335   1.399       .  A
C334        H339   1.084       .  S
C335        C336   1.421       .  A
C335       Br343   1.923       .  S
C336        C337   1.408       .  A
C337        C338   1.403       .  A
C337        H340   1.083       .  S
C338       Br344   1.918       .  S
C345        C346   1.415       .  A
C345        C350   1.409       .  A
C346        C347   1.403       .  A
C346       Br362   1.920       .  S
C347        C348   1.403       .  A
C347        H351   1.084       .  S
C348        C352   1.477       .  S
C348        C349   1.403       .  A
C349        C350   1.396       .  A
C349       Br361   1.919       .  S
C350        H353   1.083       .  S
C352        C354   1.397       .  A
C352        C358   1.409       .  A
C354        C355   1.395   1_655  A
C354        H359   1.084       .  S
C355        C356   1.416       .  A
C355       Br363   1.923       .  S
C356        C357   1.406       .  A
C357        C358   1.404   1_455  A
C357        H360   1.083       .  S
C358       Br364   1.918       .  S
C365        C366   1.418       .  A
C365        C370   1.410       .  A
C366        C367   1.404       .  A
C366       Br382   1.921       .  S
C367        C368   1.402       .  A
C367        H371   1.083       .  S
C368        C372   1.480       .  S
C368        C369   1.403       .  A
C369        C370   1.397       .  A
C369       Br381   1.919       .  S
C370        H373   1.083       .  S
C372        C374   1.399       .  A
C372        C378   1.407       .  A
C374        C375   1.400       .  A
C374        H379   1.084       .  S
C375        C376   1.419       .  A
C375       Br383   1.922       .  S
C376        C377   1.407       .  A
C377        C378   1.401       .  A
C377        H380   1.083       .  S
C378       Br384   1.918       .  S
C385        C386   1.414       .  A
C385        C390   1.406       .  A
C386        C387   1.404       .  A
C386       Br402   1.919       .  S
C387        C388   1.402       .  A
C387        H391   1.083       .  S
C388        C392   1.479   1_556  S
C388        C389   1.406       .  A
C389        C390   1.397       .  A
C389       Br401   1.920   1_556  S
C390        H393   1.084       .  S
C392        C394   1.404       .  A
C392        C398   1.406       .  A
C394        C395   1.406       .  A
C394        H399   1.084       .  S
C395        C396   1.412       .  A
C395       Br403   1.919       .  S
C396        C397   1.404       .  A
C397        C398   1.396       .  A
C397        H400   1.084       .  S
C398       Br404   1.920       .  S
C405        C406   1.415       .  A
C405        C410   1.407       .  A
C406        C407   1.405       .  A
C406       Br422   1.919       .  S
C407        C408   1.404       .  A
C407        H411   1.084       .  S
C408        C412   1.480       .  S
C408        C409   1.405       .  A
C409        C410   1.396       .  A
C409       Br421   1.919       .  S
C410        H413   1.084       .  S
C412        C414   1.401       .  A
C412        C418   1.407       .  A
C414        C415   1.400       .  A
C414        H419   1.084       .  S
C415        C416   1.415       .  A
C415       Br423   1.921       .  S
C416        C417   1.408       .  A
C417        C418   1.401       .  A
C417        H420   1.083       .  S
C418       Br424   1.918       .  S
C425        C426   1.412       .  A
C425        C430   1.403       .  A
C426        C427   1.403       .  A
C426       Br442   1.919       .  S
C427        C428   1.403       .  A
C427        H431   1.085       .  S
C428        C432   1.479   1_554  S
C428        C429   1.407       .  A
C429        C430   1.398       .  A
C429       Br441   1.919       .  S
C430        H433   1.085       .  S
C432        C434   1.399       .  A
C432        C438   1.406       .  A
C434        C435   1.397       .  A
C434        H439   1.089       .  S
C435        C436   1.418       .  A
C435       Br443   1.923       .  S
C436        C437   1.408       .  A
C437        C438   1.402       .  A
C437        H440   1.089       .  S
C438       Br444   1.916       .  S
C445        C446   1.409       .  A
C445        C450   1.404       .  A
C446        C447   1.401   1_455  A
C446       Br462   1.919       .  S
C447        C448   1.404       .  A
C447        H451   1.083       .  S
C448        C452   1.473       .  S
C448        C449   1.405       .  A
C449        C450   1.393   1_655  A
C449       Br461   1.920       .  S
C450        H453   1.084       .  S
C452        C454   1.402       .  A
C452        C458   1.405       .  A
C454        C455   1.400       .  A
C454        H459   1.084       .  S
C455        C456   1.412       .  A
C455       Br463   1.920       .  S
C456        C457   1.406       .  A
C457        C458   1.395       .  A
C457        H460   1.084       .  S
C458       Br464   1.920       .  S
C465        C466   1.406       .  A
C465        C470   1.401       .  A
C466        C467   1.402       .  A
C466       Br482   1.917       .  S
C467        C468   1.406       .  A
C467        H471   1.083       .  S
C468        C472   1.480       .  S
C468        C469   1.409       .  A
C469        C470   1.396       .  A
C469       Br481   1.920       .  S
C470        H473   1.084       .  S
C472        C474   1.404       .  A
C472        C478   1.406       .  A
C474        C475   1.405       .  A
C474        H479   1.083       .  S
C475        C476   1.415       .  A
C475       Br483   1.919       .  S
C476        C477   1.407       .  A
C477        C478   1.392       .  A
C477        H480   1.084       .  S
C478       Br484   1.922       .  S
C485        C486   1.410       .  A
C485        C490   1.404       .  A
C486        C487   1.397       .  A
C486       Br502   1.921       .  S
C487        C488   1.402       .  A
C487        H491   1.084       .  S
C488        C492   1.483       .  S
C488        C489   1.411       .  A
C489        C490   1.404       .  A
C489       Br501   1.917       .  S
C490        H493   1.084       .  S
C492        C494   1.401       .  A
C492        C498   1.411       .  A
C494        C495   1.396       .  A
C494        H499   1.084       .  S
C495        C496   1.410       .  A
C495       Br503   1.921       .  S
C496        C497   1.403       .  A
C497        C498   1.405       .  A
C497        H500   1.084       .  S
C498       Br504   1.917       .  S
C505        C506   1.416       .  A
C505        C510   1.409       .  A
C506        C507   1.405       .  A
C506       Br522   1.919       .  S
C507        C508   1.403       .  A
C507        H511   1.083       .  S
C508        C512   1.477       .  S
C508        C509   1.402       .  A
C509        C510   1.394       .  A
C509       Br521   1.920       .  S
C510        H513   1.083       .  S
C512        C514   1.399       .  A
C512        C518   1.408       .  A
C514        C515   1.397   1_565  A
C514        H519   1.084       .  S
C515        C516   1.412       .  A
C515       Br523   1.922       .  S
C516        C517   1.404       .  A
C517        C518   1.402   1_545  A
C517        H520   1.084       .  S
C518       Br524   1.917       .  S
C525        C526   1.411       .  A
C525        C530   1.404       .  A
C526        C527   1.402       .  A
C526       Br542   1.919       .  S
C527        C528   1.405       .  A
C527        H531   1.084       .  S
C528        C532   1.484       .  S
C528        C529   1.410       .  A
C529        C530   1.397       .  A
C529       Br541   1.921       .  S
C530        H533   1.084       .  S
C532        C534   1.407       .  A
C532        C538   1.410       .  A
C534        C535   1.404       .  A
C534        H539   1.083       .  S
C535        C536   1.406       .  A
C535       Br543   1.916       .  S
C536        C537   1.401       .  A
C537        C538   1.395       .  A
C537        H540   1.084       .  S
C538       Br544   1.921       .  S
C545        C546   1.418       .  A
C545        C550   1.410       .  A
C546        C547   1.406       .  A
C546       Br562   1.919       .  S
C547        C548   1.403       .  A
C547        H551   1.083       .  S
C548        C552   1.485       .  S
C548        C549   1.407       .  A
C549        C550   1.398       .  A
C549       Br561   1.921       .  S
C550        H553   1.083       .  S
C552        C554   1.405       .  A
C552        C558   1.409       .  A
C554        C555   1.404       .  A
C554        H559   1.083       .  S
C555        C556   1.409       .  A
C555       Br563   1.918       .  S
C556        C557   1.404       .  A
C557        C558   1.400       .  A
C557        H560   1.084       .  S
C558       Br564   1.920       .  S
C565        C566   1.410       .  A
C565        C570   1.404       .  A
C566        C567   1.404       .  A
C566       Br582   1.918       .  S
C567        C568   1.405       .  A
C567        H571   1.083       .  S
C568        C572   1.479       .  S
C568        C569   1.407       .  A
C569        C570   1.397       .  A
C569       Br581   1.919       .  S
C570        H573   1.084       .  S
C572        C574   1.405       .  A
C572        C578   1.407       .  A
C574        C575   1.407       .  A
C574        H579   1.083       .  S
C575        C576   1.411       .  A
C575       Br583   1.917       .  S
C576        C577   1.403       .  A
C577        C578   1.393       .  A
C577        H580   1.084       .  S
C578       Br584   1.921       .  S
C585        C586   1.411       .  A
C585        C590   1.404       .  A
C586        C587   1.400       .  A
C586       Br602   1.920       .  S
C587        C588   1.402       .  A
C587        H591   1.084       .  S
C588        C592   1.485       .  S
C588        C589   1.411       .  A
C589        C590   1.405       .  A
C589       Br601   1.917       .  S
C590        H593   1.084       .  S
C592        C594   1.402       .  A
C592        C598   1.410       .  A
C594        C595   1.400       .  A
C594        H599   1.084       .  S
C595        C596   1.412       .  A
C595       Br603   1.920       .  S
C596        C597   1.405       .  A
C597        C598   1.405       .  A
C597        H600   1.084       .  S
C598       Br604   1.918       .  S
C605        C606   1.415       .  A
C605        C610   1.404       .  A
C606        C607   1.397       .  A
C606       Br622   1.922       .  S
C607        C608   1.399       .  A
C607        H611   1.084       .  S
C608        C612   1.479       .  S
C608        C609   1.410       .  A
C609        C610   1.400       .  A
C609       Br621   1.919       .  S
C610        H613   1.084       .  S
C612        C614   1.405   1_565  A
C612        C618   1.407   1_565  A
C614        C615   1.401       .  A
C614        H619   1.084       .  S
C615        C616   1.409       .  A
C615       Br623   1.919       .  S
C616        C617   1.404       .  A
C617        C618   1.396       .  A
C617        H620   1.084       .  S
C618       Br624   1.920   1_545  S
C625        C626   1.408       .  A
C625        C630   1.402       .  A
C626        C627   1.397       .  A
C626       Br642   1.920       .  S
C627        C628   1.403       .  A
C627        H631   1.084       .  S
C628        C632   1.482       .  S
C628        C629   1.411       .  A
C629        C630   1.402       .  A
C629       Br641   1.918       .  S
C630        H633   1.084       .  S
C632        C634   1.401       .  A
C632        C638   1.411       .  A
C634        C635   1.393       .  A
C634        H639   1.084       .  S
C635        C636   1.410       .  A
C635       Br643   1.922       .  S
C636        C637   1.404       .  A
C637        C638   1.406       .  A
C637        H640   1.083       .  S
C638       Br644   1.916       .  S
C645        C646   1.417       .  A
C645        C650   1.409       .  A
C646        C647   1.403       .  A
C646       Br662   1.920       .  S
C647        C648   1.402       .  A
C647        H651   1.083       .  S
C648        C652   1.484       .  S
C648        C649   1.406       .  A
C649        C650   1.400       .  A
C649       Br661   1.919       .  S
C650        H653   1.083       .  S
C652        C654   1.402       .  A
C652        C658   1.410       .  A
C654        C655   1.399       .  A
C654        H659   1.084       .  S
C655        C656   1.412       .  A
C655       Br663   1.920       .  S
C656        C657   1.405       .  A
C657        C658   1.404       .  A
C657        H660   1.084       .  S
C658       Br664   1.918       .  S
C665        C666   1.409       .  A
C665        C670   1.403       .  A
C666        C667   1.398       .  A
C666       Br682   1.921       .  S
C667        C668   1.404       .  A
C667        H671   1.084       .  S
C668        C672   1.487       .  S
C668        C669   1.413       .  A
C669        C670   1.403       .  A
C669       Br681   1.919       .  S
C670        H673   1.084       .  S
C672        C674   1.402       .  A
C672        C678   1.414       .  A
C674        C675   1.396       .  A
C674        H679   1.084       .  S
C675        C676   1.409       .  A
C675       Br683   1.918       .  S
C676        C677   1.403       .  A
C677        C678   1.406       .  A
C677        H680   1.084       .  S
C678       Br684   1.918       .  S
C685        C686   1.414       .  A
C685        C690   1.407       .  A
C686        C687   1.403       .  A
C686       Br702   1.920       .  S
C687        C688   1.405       .  A
C687        H691   1.083       .  S
C688        C692   1.487       .  S
C688        C689   1.408       .  A
C689        C690   1.398       .  A
C689       Br701   1.920       .  S
C690        H693   1.083       .  S
C692        C694   1.402       .  A
C692        C698   1.412       .  A
C694        C695   1.398       .  A
C694        H699   1.084       .  S
C695        C696   1.412       .  A
C695       Br703   1.921       .  S
C696        C697   1.405       .  A
C697        C698   1.404       .  A
C697        H700   1.083       .  S
C698       Br704   1.919       .  S
C705        C706   1.409       .  A
C705        C710   1.404       .  A
C706        C707   1.401       .  A
C706       Br722   1.919       .  S
C707        C708   1.403   1_545  A
C707        H711   1.084   1_545  S
C708        C712   1.475       .  S
C708        C709   1.406       .  A
C709        C710   1.396   1_565  A
C709       Br721   1.920       .  S
C710        H713   1.084       .  S
C712        C714   1.401       .  A
C712        C718   1.408       .  A
C714        C715   1.399       .  A
C714        H719   1.084       .  S
C715        C716   1.411       .  A
C715       Br723   1.921       .  S
C716        C717   1.402       .  A
C717        C718   1.397       .  A
C717        H720   1.084       .  S
C718       Br724   1.919       .  S
C725        C726   1.413       .  A
C725        C730   1.405       .  A
C726        C727   1.394       .  A
C726       Br742   1.923       .  S
C727        C728   1.400       .  A
C727        H731   1.084       .  S
C728        C732   1.475       .  S
C728        C729   1.407       .  A
C729        C730   1.403       .  A
C729       Br741   1.916       .  S
C730        H733   1.084       .  S
C732        C734   1.401       .  A
C732        C738   1.408       .  A
C734        C735   1.395       .  A
C734        H739   1.084       .  S
C735        C736   1.409       .  A
C735       Br743   1.921       .  S
C736        C737   1.403       .  A
C737        C738   1.401       .  A
C737        H740   1.084       .  S
C738       Br744   1.917       .  S
C745        C746   1.422       .  A
C745        C750   1.412       .  A
C746        C747   1.406       .  A
C746       Br762   1.921       .  S
C747        C748   1.402       .  A
C747        H751   1.083       .  S
C748        C752   1.489       .  S
C748        C749   1.405       .  A
C749        C750   1.403       .  A
C749       Br761   1.918       .  S
C750        H753   1.083       .  S
C752        C754   1.403       .  A
C752        C758   1.408       .  A
C754        C755   1.405       .  A
C754        H759   1.083       .  S
C755        C756   1.415       .  A
C755       Br763   1.920       .  S
C756        C757   1.408       .  A
C757        C758   1.404       .  A
C757        H760   1.083       .  S
C758       Br764   1.918       .  S
C765        C766   1.414       .  A
C765        C770   1.407       .  A
C766        C767   1.397       .  A
C766       Br782   1.921       .  S
C767        C768   1.400       .  A
C767        H771   1.084       .  S
C768        C772   1.484   1_556  S
C768        C769   1.410       .  A
C769        C770   1.407       .  A
C769       Br781   1.917       .  S
C770        H773   1.083       .  S
C772        C774   1.401       .  A
C772        C778   1.409       .  A
C774        C775   1.400       .  A
C774        H779   1.084       .  S
C775        C776   1.412       .  A
C775       Br783   1.920       .  S
C776        C777   1.405       .  A
C777        C778   1.405       .  A
C777        H780   1.083       .  S
C778       Br784   1.917       .  S
C785        C786   1.414       .  A
C785        C790   1.404       .  A
C786        C787   1.405       .  A
C786       Br802   1.919       .  S
C787        C788   1.405       .  A
C787        H791   1.083       .  S
C788        C792   1.483       .  S
C788        C789   1.409       .  A
C789        C790   1.394       .  A
C789       Br801   1.922       .  S
C790        H793   1.084       .  S
C792        C794   1.407       .  A
C792        C798   1.411       .  A
C794        C795   1.402       .  A
C794        H799   1.083       .  S
C795        C796   1.405       .  A
C795       Br803   1.917       .  S
C796        C797   1.401       .  A
C797        C798   1.397       .  A
C797        H800   1.084       .  S
C798       Br804   1.921       .  S
C805        C806   1.410       .  A
C805        C810   1.403       .  A
C806        C807   1.401       .  A
C806       Br822   1.920       .  S
C807        C808   1.402       .  A
C807        H811   1.084       .  S
C808        C812   1.487       .  S
C808        C809   1.412       .  A
C809        C810   1.404       .  A
C809       Br821   1.919       .  S
C810        H813   1.083       .  S
C812        C814   1.405       .  A
C812        C818   1.407       .  A
C814        C815   1.405       .  A
C814        H819   1.083       .  S
C815        C816   1.414       .  A
C815       Br823   1.919       .  S
C816        C817   1.408       .  A
C817        C818   1.400       .  A
C817        H820   1.084       .  S
C818       Br824   1.919       .  S
C825        C826   1.414       .  A
C825        C830   1.405       .  A
C826        C827   1.399       .  A
C826       Br842   1.921       .  S
C827        C828   1.401       .  A
C827        H831   1.084       .  S
C828        C832   1.479   1_554  S
C828        C829   1.407       .  A
C829        C830   1.403       .  A
C829       Br841   1.917       .  S
C830        H833   1.084       .  S
C832        C834   1.400       .  A
C832        C838   1.409       .  A
C834        C835   1.397       .  A
C834        H839   1.084       .  S
C835        C836   1.410       .  A
C835       Br843   1.920       .  S
C836        C837   1.404       .  A
C837        C838   1.405       .  A
C837        H840   1.084       .  S
C838       Br844   1.917       .  S
C845        C846   1.412       .  A
C845        C850   1.405       .  A
C846        C847   1.395       .  A
C846       Br862   1.920       .  S
C847        C848   1.400       .  A
C847        H851   1.084       .  S
C848        C852   1.478       .  S
C848        C849   1.409       .  A
C849        C850   1.403       .  A
C849       Br861   1.917       .  S
C850        H853   1.084       .  S
C852        C854   1.403       .  A
C852        C858   1.406       .  A
C854        C855   1.402   1_565  A
C854        H859   1.083       .  S
C855        C856   1.412       .  A
C855       Br863   1.920       .  S
C856        C857   1.406       .  A
C857        C858   1.397   1_545  A
C857        H860   1.084       .  S
C858       Br864   1.919       .  S
