geometry optimzed in LAMMPS
_audit_creation_date              2020-12-01 
_audit_creation_method            'lammps2cif' 
_symmetry_space_group_name_H-M    'P1' 
_symmetry_Int_Tables_number       1 
_symmetry_cell_setting            triclinic 
loop_ 
_symmetry_equiv_pos_as_xyz 
  x,y,z 
_cell_length_a                    93.04384787 
_cell_length_b                    93.525490824095 
_cell_length_c                    26.994139933866396 
_cell_angle_alpha                 89.10416832390489 
_cell_angle_beta                  91.04296249694394 
_cell_angle_gamma                 124.09138026737799 
loop_ 
_atom_site_label 
_atom_site_type_symbol 
_atom_site_fract_x 
_atom_site_fract_y 
_atom_site_fract_z 
_atom_site_charge 
O1          O  0.26839189  0.37153224  0.57686448    -0.57600
C2          C  0.22183992  0.34449090  0.66802183     0.75100
O3          O  0.22027031  0.32808602  0.51814224    -0.58700
C4          C  0.27352462  0.36647447  0.54209471     0.75000
C5          C  0.24901189  0.32032674  0.63989369     0.77400
Cd6        Cd  0.24098250  0.34253952  0.58958394     1.37500
O7          O  0.23698653  0.35741066  0.65771235    -0.57600
O8          O  0.25576761  0.33596954  0.65112738    -0.56400
C9          C  0.21906994  0.34085162  0.51043206     0.77400
O10         O  0.23819567  0.31450195  0.60387805    -0.58800
O11         O  0.21600875  0.33104245  0.64237322    -0.57200
O12         O  0.26377936  0.35065836  0.53079719    -0.57200
O13         O  0.22779781  0.35361144  0.53902120    -0.56400
O14         O  0.11500369  0.33482049  0.01525832    -0.57600
C15         C  0.08114437  0.32705669  0.13747573     0.75100
O16         O  0.13269989  0.36575449  0.15263534    -0.58700
C17         C  0.13020824  0.34746206  0.00412167     0.75000
C18         C  0.10312369  0.37260462  0.03347881     0.77400
Cd19       Cd  0.11180529  0.35072522  0.08227903     1.37500
O20         O  0.08424810  0.32228219  0.09751923    -0.57600
O21         O  0.09521161  0.35659502  0.02514887    -0.56400
C22         C  0.13484515  0.35353378  0.15883348     0.77400
O23         O  0.11516108  0.37879266  0.06608524    -0.58800
O24         O  0.09188250  0.34260969  0.15002334    -0.57200
O25         O  0.13622433  0.36129137  0.02802431    -0.57200
O26         O  0.12675266  0.34096452  0.12930843    -0.56400
O27         O  0.35303972  0.24028432  0.84870197    -0.57600
C28         C  0.36235178  0.27486494  0.97203090     0.75100
O29         O  0.31067564  0.24259190  0.90811713    -0.58700
C30         C  0.33957101  0.22578639  0.83606160     0.75000
C31         C  0.33665281  0.22115753  0.99330166     0.77400
Cd32       Cd  0.33833680  0.24414586  0.91796539     1.37500
O33         O  0.36666196  0.27240827  0.93015287    -0.57600
O34         O  0.34976213  0.23069758  0.96639947    -0.56400
C35         C  0.31666928  0.25414688  0.87437193     0.77400
O36         O  0.32352611  0.22185412  0.98509018    -0.58800
O37         O  0.34722301  0.26345379  0.98679218    -0.57200
O38         O  0.32596098  0.22038960  0.86067349    -0.57200
O39         O  0.33231487  0.26084503  0.86251171    -0.56400
O40         O  0.31960840  0.08832715  0.41535774    -0.57600
C41         C  0.34479451  0.13448953  0.50439957     0.75100
O42         O  0.37707609  0.11983792  0.43925163    -0.58700
C43         C  0.32449808  0.08365013  0.37898452     0.75000
C44         C  0.34931670  0.13675161  0.34452544     0.77400
Cd45       Cd  0.34837656  0.11615251  0.42636280     1.37500
O46         O  0.33257300  0.11905122  0.49416821    -0.57600
O47         O  0.33639207  0.12774246  0.37237789    -0.56400
C48         C  0.37159099  0.10870860  0.47407223     0.77400
O49         O  0.36268951  0.13666939  0.35466181    -0.58800
O50         O  0.35847596  0.14104535  0.47914590    -0.57200
O51         O  0.34019540  0.09376695  0.36638976    -0.57200
O52         O  0.35585864  0.10150794  0.48582405    -0.56400
O53         O  0.60623890  0.58450913  0.73847338    -0.57600
C54         C  0.56116239  0.56453226  0.83197439     0.75100
O55         O  0.57952247  0.61168670  0.75634137    -0.58700
C56         C  0.61144958  0.59411700  0.70012197     0.75000
C57         C  0.55663531  0.56304731  0.67650698     0.77400
Cd58       Cd  0.58065415  0.58586527  0.74966839     1.37500
O59         O  0.57584984  0.56727164  0.82242928    -0.57600
O60         O  0.56509724  0.55939758  0.70497867    -0.56400
C61         C  0.59057407  0.61812159  0.79165799     0.77400
O62         O  0.55928294  0.57785796  0.68147454    -0.58800
O63         O  0.55608699  0.57191086  0.80411040    -0.57200
O64         O  0.60266105  0.60004364  0.68635355    -0.57200
O65         O  0.59719179  0.60994717  0.80496695    -0.56400
O66         O  0.44753324  0.46453435  0.18263282    -0.57600
C67         C  0.40960805  0.43658043  0.29909655     0.75100
O68         O  0.44057899  0.41738384  0.24707252    -0.58700
C69         C  0.46188506  0.46645814  0.17357535     0.75000
C70         C  0.46313674  0.46376553  0.33035606     0.77400
Cd71       Cd  0.44033098  0.44370388  0.25134915     1.37500
O72         O  0.41363619  0.44386415  0.25674281    -0.57600
O73         O  0.45605168  0.46902650  0.30186607    -0.56400
C74         C  0.42981630  0.41090290  0.21118643     0.77400
O75         O  0.45997901  0.44893994  0.32158441    -0.58800
O76         O  0.41941321  0.43240193  0.31713473    -0.57200
O77         O  0.46572321  0.45771212  0.19983936    -0.57200
O78         O  0.42385967  0.41944187  0.19540230    -0.56400
O79         O  0.90594270  0.68946591  0.99183517    -0.57600
C80         C  0.94068327  0.69923042  0.87349775     0.75100
O81         O  0.90646537  0.64655226  0.92818518    -0.58700
C82         C  0.89070132  0.67683340  0.00235983     0.75000
C83         C  0.88720922  0.67307012  0.84244622     0.77400
Cd84       Cd  0.90888524  0.67452411  0.92184075     1.37500
O85         O  0.93619896  0.70357443  0.91159233    -0.57600
O86         O  0.89726041  0.68643183  0.86780826    -0.56400
C87         C  0.91747992  0.65161107  0.96347153     0.77400
O88         O  0.88678469  0.65960372  0.85409524    -0.58800
O89         O  0.93080363  0.68364334  0.86013533    -0.57200
O90         O  0.88435922  0.66343422  0.97615963    -0.57200
O91         O  0.92410139  0.66686542  0.97846867    -0.56400
O92         O  0.78350921  0.66886140  0.34350498    -0.57600
C93         C  0.74824265  0.66047731  0.46178201     0.75100
O94         O  0.80100660  0.69801663  0.48460342    -0.58700
C95         C  0.79898955  0.68132119  0.33421979     0.75000
C96         C  0.77274789  0.70662812  0.36419033     0.77400
Cd97       Cd  0.78043869  0.68397405  0.41291933     1.37500
O98         O  0.75234783  0.65561231  0.42400728    -0.57600
O99         O  0.76601019  0.69108872  0.35192809    -0.56400
C100        C  0.80205041  0.68514592  0.49209199     0.77400
O101        O  0.78346069  0.71217436  0.40042140    -0.58800
O102        O  0.75883155  0.67595032  0.47524243    -0.57200
O103        O  0.80541255  0.69458982  0.36110912    -0.57200
O104        O  0.79348382  0.67254707  0.46283388    -0.56400
O105        O  0.70098123  0.93771051  0.59829870    -0.57600
C106        C  0.67466140  0.89289139  0.49997475     0.75100
O107        O  0.65909073  0.88868859  0.65358289    -0.58700
C108        C  0.69591912  0.94118097  0.63699855     0.75000
C109        C  0.64924446  0.91813192  0.54169496     0.77400
Cd110      Cd  0.67246226  0.90993664  0.58382066     1.37500
O111        O  0.68742660  0.90793551  0.51174867    -0.57600
O112        O  0.66525438  0.92638038  0.53195940    -0.56400
C113        C  0.67221139  0.88782762  0.65905317     0.77400
O114        O  0.64353662  0.90572929  0.57262354    -0.58800
O115        O  0.66122931  0.88632584  0.52633285    -0.57200
O116        O  0.68030497  0.93041456  0.64938530    -0.57200
O117        O  0.68454862  0.89662969  0.62915872    -0.56400
O118        O  0.65373773  0.75488296  0.08225476    -0.57600
C119        C  0.68058593  0.80132631  0.17144699     0.75100
O120        O  0.71016595  0.78391465  0.09986389    -0.58700
C121        C  0.65725978  0.75170527  0.04025980     0.75000
C122        C  0.68624804  0.80629964  0.01454481     0.77400
Cd123      Cd  0.68271631  0.78285988  0.09136511     1.37500
O124        O  0.66744010  0.78664498  0.15876048    -0.57600
O125        O  0.67297137  0.79753553  0.04137252    -0.56400
C126        C  0.70471225  0.77342403  0.13628843     0.77400
O127        O  0.69871495  0.80463764  0.02363690    -0.58800
O128        O  0.69443337  0.80693092  0.14784000    -0.57200
O129        O  0.67229144  0.76257334  0.02386393    -0.57200
O130        O  0.68945074  0.76752229  0.15036532    -0.56400
O131        O  0.00446716  0.45475678  0.82569497    -0.57600
C132        C  0.99293723  0.41999267  0.70470553     0.75100
O133        O  0.03250042  0.47299079  0.68511051    -0.58700
C134        C  0.01807989  0.46909055  0.83847520     0.75000
C135        C  0.04023826  0.44104481  0.79184745     0.77400
Cd136      Cd  0.01829786  0.45133395  0.75350624     1.37500
O137        O  0.98943202  0.42373305  0.74585995    -0.57600
O138        O  0.02462671  0.43411159  0.80438433    -0.56400
C139        C  0.01957523  0.47410387  0.67850184     0.77400
O140        O  0.04614339  0.45307989  0.75962067    -0.58800
O141        O  0.00789249  0.43070260  0.68745046    -0.57200
O142        O  0.03139434  0.47474335  0.81221990    -0.57200
O143        O  0.00680005  0.46505922  0.70689887    -0.56400
O144        O  0.03677342  0.60658641  0.25688054    -0.57600
C145        C  0.01286094  0.56055638  0.16634193     0.75100
O146        O  0.99398348  0.55763395  0.31333315    -0.58700
C147        C  0.03109973  0.61049175  0.29316204     0.75000
C148        C  0.98618772  0.58599064  0.18999940     0.77400
Cd149      Cd  0.00861439  0.57861348  0.24283795     1.37500
O150        O  0.02525484  0.57577119  0.17805267    -0.57600
O151        O  0.00224379  0.59367896  0.18160483    -0.56400
C152        C  0.00760853  0.55823394  0.32547140     0.77400
O153        O  0.98012255  0.57470873  0.22451754    -0.58800
O154        O  0.99880893  0.55414977  0.18964892    -0.57200
O155        O  0.01522605  0.60003098  0.30356766    -0.57200
O156        O  0.02081158  0.56770835  0.29892516    -0.56400
O157        O  0.91476499  0.27713442  0.43617546    -0.57600
C158        C  0.89262006  0.23076502  0.34790134     0.75100
O159        O  0.94083550  0.24956469  0.42012245    -0.58700
C160        C  0.92439855  0.28246938  0.47469978     0.75000
C161        C  0.89427626  0.22841215  0.50678334     0.77400
Cd162      Cd  0.91523669  0.25105559  0.42835982     1.37500
O163        O  0.89509532  0.24525736  0.35756273    -0.57600
O164        O  0.88990823  0.23636654  0.47880217    -0.56400
C165        C  0.94694277  0.26002350  0.38368250     0.77400
O166        O  0.90899721  0.23098251  0.49903358    -0.58800
O167        O  0.90045158  0.22610303  0.37544592    -0.57200
O168        O  0.93007730  0.27360848  0.48971066    -0.57200
O169        O  0.93874610  0.26661476  0.37027030    -0.56400
O170        O  0.77769385  0.12760470  0.85214844    -0.57600
C171        C  0.74183804  0.09982203  0.97285653     0.75100
O172        O  0.77373601  0.08266820  0.91824006    -0.58700
C173        C  0.79253309  0.13059826  0.84331309     0.75000
C174        C  0.79652845  0.13068494  0.00180825     0.77400
Cd175      Cd  0.77301905  0.10886620  0.92472911     1.37500
O176        O  0.74674557  0.10933824  0.93432480    -0.57600
O177        O  0.78919337  0.13530751  0.97196370    -0.56400
C178        C  0.76364819  0.07682249  0.88067167     0.77400
O179        O  0.79321312  0.11564785  0.99585418    -0.58800
O180        O  0.75104168  0.09440921  0.98680525    -0.57200
O181        O  0.79783899  0.12365940  0.87220287    -0.57200
O182        O  0.75783408  0.08553741  0.86543643    -0.56400
O183        O  0.45016947  0.00466311  0.68136686    -0.57600
C184        C  0.41492057  0.99633181  0.79918781     0.75100
O185        O  0.46873824  0.03301103  0.82102981    -0.58700
C186        C  0.46514458  0.01755937  0.66962552     0.75000
C187        C  0.43905909  0.04249741  0.70584649     0.77400
Cd188      Cd  0.44717969  0.01970415  0.75094790     1.37500
O189        O  0.41927571  0.99136247  0.76220586    -0.57600
O190        O  0.43137345  0.02667793  0.69516940    -0.56400
C191        C  0.46853577  0.01941776  0.82856113     0.77400
O192        O  0.45090436  0.04824706  0.73905184    -0.58800
O193        O  0.42527926  0.01193025  0.81206681    -0.57200
O194        O  0.47129822  0.03110831  0.69502614    -0.57200
O195        O  0.45875793  0.00677474  0.80044842    -0.56400
O196        O  0.60103356  0.03422501  0.25119031    -0.57600
C197        C  0.55430108  0.00992330  0.33626828     0.75100
O198        O  0.55163353  0.99072091  0.19062639    -0.58700
C199        C  0.60525179  0.02949995  0.21338035     0.75000
C200        C  0.58113701  0.98409732  0.31212438     0.77400
Cd201      Cd  0.57290484  0.00599148  0.26074712     1.37500
O202        O  0.56922186  0.02257803  0.32322049    -0.57600
O203        O  0.58707728  0.99942421  0.32503806    -0.56400
C204        C  0.55108468  0.00373686  0.18020548     0.77400
O205        O  0.57107743  0.97852317  0.27441222    -0.58800
O206        O  0.54845486  0.99564164  0.31505493    -0.57200
O207        O  0.59465957  0.01412554  0.19913380    -0.57200
O208        O  0.56029443  0.01692073  0.20699087    -0.56400
O209        O  0.12420861  0.78047234  0.66183757    -0.57600
C210        C  0.09571497  0.74329697  0.54579891     0.75100
O211        O  0.08082588  0.77813423  0.59332375    -0.58700
C212        C  0.12910883  0.79610035  0.66640525     0.75000
C213        C  0.12700786  0.79666341  0.50642965     0.77400
Cd214      Cd  0.10611250  0.77576372  0.58748643     1.37500
O215        O  0.10722162  0.75006734  0.57980553    -0.57600
O216        O  0.13118521  0.78878478  0.53544927    -0.56400
C217        C  0.07539587  0.76934660  0.63319145     0.77400
O218        O  0.11271982  0.79497139  0.51479496    -0.58800
O219        O  0.08866942  0.75115749  0.53365778    -0.57200
O220        O  0.12376686  0.80199108  0.63379649    -0.57200
O221        O  0.08387788  0.76342293  0.64985324    -0.56400
O222        O  0.24217092  0.89592790  0.15614677    -0.57600
C223        C  0.27907053  0.92514269  0.04193097     0.75100
O224        O  0.22649148  0.91001467  0.02098634    -0.58700
C225        C  0.22797541  0.89393345  0.16786138     0.75000
C226        C  0.25715985  0.94827938  0.13613233     0.77400
Cd227      Cd  0.24785585  0.91673047  0.08898405     1.37500
O228        O  0.27475272  0.91722645  0.08327601    -0.57600
O229        O  0.26255133  0.93916778  0.15104160    -0.56400
C230        C  0.22317802  0.89501046  0.01420347     0.77400
O231        O  0.24780862  0.94324010  0.09703431    -0.58800
O232        O  0.26921023  0.92930168  0.02412586    -0.57200
O233        O  0.22353082  0.90250496  0.14324137    -0.57200
O234        O  0.23137502  0.89067068  0.04132699    -0.56400
C235        C  0.13850399  0.80730022  0.46539423    -0.03100
C236        C  0.13484053  0.81729937  0.43530477    -0.08900
C237        C  0.14624166  0.82770724  0.39761575    -0.16500
C238        C  0.16131848  0.82813743  0.38965926     0.25600
C239        C  0.16492378  0.81807311  0.41905944    -0.18200
C240        C  0.15360591  0.80772206  0.45667950    -0.07100
C241        C  0.17326487  0.83904434  0.35181865    -0.13600
C242        C  0.18336365  0.84833549  0.32043635    -0.13300
C243        C  0.19487942  0.85982145  0.28268377     0.25500
C244        C  0.20915860  0.85959039  0.26847587    -0.18700
C245        C  0.22017261  0.87080888  0.23124738    -0.07200
C246        C  0.21688796  0.88226162  0.20796536    -0.03200
C247        C  0.20254110  0.88238627  0.22271925    -0.08600
C248        C  0.19164684  0.87126492  0.25987459    -0.16200
H249        H  0.12331230  0.81720907  0.44123242     0.12000
H250        H  0.14336549  0.83548512  0.37493125     0.11200
H251        H  0.17654410  0.81831331  0.41312845     0.11200
H252        H  0.15675271  0.80011743  0.47915512     0.11700
H253        H  0.21173199  0.85073241  0.28601690     0.11800
H254        H  0.23110186  0.87042874  0.22041430     0.11700
H255        H  0.19970519  0.89109493  0.20552232     0.11900
H256        H  0.18064772  0.87154542  0.27068367     0.10700
C257        C  0.21051935  0.88292380  0.97678026    -0.03100
C258        C  0.20221525  0.88783287  0.94346320    -0.08900
C259        C  0.19079211  0.87628893  0.90715419    -0.16500
C260        C  0.18754127  0.85976484  0.90405203     0.25600
C261        C  0.19549123  0.85471359  0.93770488    -0.18200
C262        C  0.20688393  0.86618370  0.97378413    -0.07100
C263        C  0.17669369  0.84816663  0.86518833    -0.13600
C264        C  0.16832297  0.83852530  0.83167538    -0.13300
C265        C  0.15887379  0.82776296  0.78990972     0.25500
C266        C  0.15542408  0.83484459  0.74922859    -0.18700
C267        C  0.14609933  0.82456788  0.70860791    -0.07200
C268        C  0.14008985  0.80701732  0.70807634    -0.03200
C269        C  0.14386697  0.80001758  0.74869026    -0.08600
C270        C  0.15321047  0.81036296  0.78951267    -0.16200
H271        H  0.20474432  0.90061564  0.94500620     0.12000
H272        H  0.18470154  0.88032243  0.88112674     0.11200
H273        H  0.19308500  0.84198117  0.93560664     0.11200
H274        H  0.21299750  0.86197132  0.99906121     0.11700
H275        H  0.15982944  0.84831036  0.74906248     0.11800
H276        H  0.14341221  0.83033262  0.67784483     0.11700
H277        H  0.13932882  0.78652325  0.74929132     0.11900
H278        H  0.15589015  0.80478435  0.82082565     0.10700
C279        C  0.39877952  0.98468735  0.82695565    -0.03100
C280        C  0.38837763  0.96681868  0.81794186    -0.08900
C281        C  0.37352858  0.95596254  0.84628289    -0.16500
C282        C  0.36897676  0.96288952  0.88372392     0.25600
C283        C  0.37918374  0.98065692  0.89242292    -0.18200
C284        C  0.39397191  0.99146878  0.86437185    -0.07100
C285        C  0.35354959  0.95214211  0.91242375    -0.13600
C286        C  0.34048904  0.94500763  0.93656106    -0.13300
C287        C  0.32467406  0.93871337  0.96283897     0.25500
C288        C  0.32273876  0.93308429  0.01220556    -0.18700
C289        C  0.30773389  0.92831448  0.03816954    -0.07200
C290        C  0.29468377  0.92936395  0.01502046    -0.03200
C291        C  0.29669741  0.93480496  0.96531304    -0.08600
C292        C  0.31155338  0.93940691  0.93946209    -0.16200
H293        H  0.39180509  0.96125250  0.78944845     0.12000
H294        H  0.36562065  0.94222342  0.83898797     0.11200
H295        H  0.37569491  0.98617684  0.92094241     0.11200
H296        H  0.40167952  0.00517246  0.87213150     0.11700
H297        H  0.33290735  0.93264862  0.03079050     0.11800
H298        H  0.30649984  0.92417805  0.07644622     0.11700
H299        H  0.28681486  0.93562966  0.94639297     0.11900
H300        H  0.31295467  0.94383566  0.90142205     0.10700
C301        C  0.54053337  0.00408539  0.13900023    -0.03100
C302        C  0.53961894  0.01855151  0.13339721    -0.08900
C303        C  0.53041241  0.01969106  0.09396203    -0.16500
C304        C  0.52195186  0.00643837  0.05925577     0.25600
C305        C  0.52255970  0.99182825  0.06463525    -0.18200
C306        C  0.53179419  0.99063206  0.10441343    -0.07100
C307        C  0.51294117  0.00820356  0.01808632    -0.13600
C308        C  0.50575848  0.01061880  0.98453577    -0.13300
C309        C  0.49700826  0.01335658  0.94464591     0.25500
C310        C  0.48775867  0.00054253  0.90903875    -0.18700
C311        C  0.47877077  0.00275355  0.87109482    -0.07200
C312        C  0.47887467  0.01786103  0.86801503    -0.03200
C313        C  0.48843895  0.03085948  0.90342110    -0.08600
C314        C  0.49744128  0.02859135  0.94161648    -0.16200
H315        H  0.54614778  0.02912596  0.15940148     0.12000
H316        H  0.53002360  0.03102789  0.09032156     0.11200
H317        H  0.51603533  0.98146306  0.03795313     0.11200
H318        H  0.53229697  0.97936507  0.10773642     0.11700
H319        H  0.48734694  0.98873356  0.91085386     0.11800
H320        H  0.47159350  0.99250988  0.84433185     0.11700
H321        H  0.48875231  0.04260988  0.90198912     0.11900
H322        H  0.50459171  0.03862591  0.96899148     0.10700
C323        C  0.47519014  0.01703060  0.62879006    -0.03100
C324        C  0.46939834  0.00153190  0.60416040    -0.08900
C325        C  0.47930328  0.00119778  0.56635900    -0.16500
C326        C  0.49503010  0.01634389  0.55272963     0.25600
C327        C  0.50083959  0.03181039  0.57697245    -0.18200
C328        C  0.49101041  0.03216411  0.61478483    -0.07100
C329        C  0.50531268  0.01602689  0.51421769    -0.13600
C330        C  0.51398849  0.01561547  0.48242246    -0.13300
C331        C  0.52409148  0.01440743  0.44515623     0.25500
C332        C  0.53980331  0.02914976  0.42948004    -0.18700
C333        C  0.54975053  0.02775496  0.39406842    -0.07200
C334        C  0.54403448  0.01158850  0.37397980    -0.03200
C335        C  0.52816791  0.99689663  0.38971749    -0.08600
C336        C  0.51829340  0.99831318  0.42512110    -0.16200
H337        H  0.45731812  0.98967834  0.61436430     0.12000
H338        H  0.47473007  0.98914151  0.54787247     0.11200
H339        H  0.51300119  0.04359321  0.56676709     0.11200
H340        H  0.49581943  0.04429575  0.63310643     0.11700
H341        H  0.54439143  0.04167799  0.44477146     0.11800
H342        H  0.56186451  0.03929179  0.38237846     0.11700
H343        H  0.52340692  0.98428166  0.37481931     0.11900
H344        H  0.50615727  0.98682860  0.43703076     0.10700
C345        C  0.62157272  0.04111674  0.18650433    -0.03100
C346        C  0.62525105  0.03498626  0.14464196    -0.08900
C347        C  0.64054665  0.04569850  0.11856952    -0.16500
C348        C  0.65239482  0.06270252  0.13380196     0.25600
C349        C  0.64889658  0.06899694  0.17540980    -0.18200
C350        C  0.63351212  0.05825126  0.20167165    -0.07100
C351        C  0.66835147  0.07323109  0.10730982    -0.13600
C352        C  0.68153945  0.08014625  0.08388524    -0.13300
C353        C  0.69705285  0.08603593  0.05662606     0.25500
C354        C  0.70067199  0.09558390  0.01265080    -0.18700
C355        C  0.71532067  0.10023179  0.98504161    -0.07200
C356        C  0.72635732  0.09523744  0.00116216    -0.03200
C357        C  0.72262861  0.08577555  0.04557340    -0.08600
C358        C  0.70809954  0.08122517  0.07303193    -0.16200
H359        H  0.61631566  0.02185989  0.13200838     0.12000
H360        H  0.64318636  0.04067068  0.08663796     0.11200
H361        H  0.65807075  0.08212976  0.18766311     0.11200
H362        H  0.63098788  0.06329374  0.23375856     0.11700
H363        H  0.69209713  0.09925269  0.99947735     0.11800
H364        H  0.71792075  0.10755597  0.95104562     0.11700
H365        H  0.73091837  0.08180615  0.05912229     0.11900
H366        H  0.70535555  0.07374190  0.10681236     0.10700
C367        C  0.80815313  0.14239031  0.04158921    -0.03100
C368        C  0.81319407  0.13628421  0.08161265    -0.08900
C369        C  0.82352638  0.14742487  0.12013160    -0.16500
C370        C  0.82901018  0.16478098  0.11882212     0.25600
C371        C  0.82421730  0.17096160  0.07876700    -0.18200
C372        C  0.81383488  0.15986007  0.04051578    -0.07100
C373        C  0.83955148  0.17633196  0.15834982    -0.13600
C374        C  0.84853540  0.18621778  0.19087826    -0.13300
C375        C  0.85961300  0.19765973  0.22991536     0.25500
C376        C  0.86063901  0.21290220  0.23960756    -0.18700
C377        C  0.87144284  0.22385799  0.27787317    -0.07200
C378        C  0.88127696  0.21961507  0.30683520    -0.03200
C379        C  0.88019000  0.20432819  0.29652966    -0.08600
C380        C  0.86946402  0.19347067  0.25838982    -0.16200
H381        H  0.80892920  0.12287919  0.08350431     0.12000
H382        H  0.82717027  0.14249655  0.15097536     0.11200
H383        H  0.82842195  0.18435983  0.07722845     0.11200
H384        H  0.81020693  0.16495602  0.01010927     0.11700
H385        H  0.85308235  0.21629088  0.21769757     0.11800
H386        H  0.87203475  0.23554464  0.28495191     0.11700
H387        H  0.88764009  0.20071583  0.31801046     0.11900
H388        H  0.86882722  0.18175912  0.25118830     0.10700
C389        C  0.80336086  0.14149398  0.80155989    -0.03100
C390        C  0.81984018  0.14452991  0.79543875    -0.08900
C391        C  0.83027983  0.15454054  0.75605471    -0.16500
C392        C  0.82445818  0.16168477  0.72214101     0.25600
C393        C  0.80807779  0.15881622  0.72776154    -0.18200
C394        C  0.79753986  0.14874082  0.76739459    -0.07100
C395        C  0.83567212  0.17227662  0.68256909    -0.13600
C396        C  0.84596956  0.18151891  0.65146732    -0.13300
C397        C  0.85834901  0.19324363  0.61555795     0.25500
C398        C  0.85470674  0.20347113  0.58722106    -0.18700
C399        C  0.86661083  0.21507270  0.55256475    -0.07200
C400        C  0.88237218  0.21660668  0.54559151    -0.03200
C401        C  0.88609863  0.20643409  0.57461598    -0.08600
C402        C  0.87409327  0.19476605  0.60948930    -0.16200
H403        H  0.82471067  0.13915535  0.82113664     0.12000
H404        H  0.84295740  0.15675581  0.75214886     0.11200
H405        H  0.80350086  0.16438213  0.70169968     0.11200
H406        H  0.78490000  0.14659379  0.77125033     0.11700
H407        H  0.84262162  0.20246626  0.59186341     0.11800
H408        H  0.86337785  0.22276227  0.53091316     0.11700
H409        H  0.89813815  0.20736557  0.56999130     0.11900
H410        H  0.87705194  0.18693664  0.63156511     0.10700
C411        C  0.04221347  0.62619690  0.32307159    -0.03100
C412        C  0.03485067  0.62958579  0.36239185    -0.08900
C413        C  0.04504968  0.64405795  0.39202311    -0.16500
C414        C  0.06277913  0.65540181  0.38298834     0.25600
C415        C  0.07033693  0.65217759  0.34404363    -0.18200
C416        C  0.06009268  0.63759225  0.31418003    -0.07100
C417        C  0.07266749  0.67072450  0.41251455    -0.13600
C418        C  0.07857052  0.68340631  0.43768706    -0.13300
C419        C  0.08297110  0.69827215  0.46597020     0.25500
C420        C  0.09643809  0.70542944  0.50125576    -0.18700
C421        C  0.10042385  0.71991484  0.52830195    -0.07200
C422        C  0.09096095  0.72734105  0.52018065    -0.03200
C423        C  0.07735601  0.71991310  0.48502997    -0.08600
C424        C  0.07338931  0.70547827  0.45824211    -0.16200
H425        H  0.02114473  0.62104157  0.37034378     0.12000
H426        H  0.03904686  0.64649182  0.42179847     0.11200
H427        H  0.08405457  0.66096819  0.33655719     0.11200
H428        H  0.06610902  0.63523470  0.28431582     0.11700
H429        H  0.10388782  0.69989401  0.50764605     0.11800
H430        H  0.11103821  0.72544724  0.55492911     0.11700
H431        H  0.06985570  0.72535077  0.47786692     0.11900
H432        H  0.06287896  0.69998085  0.43121983     0.10700
C433        C  0.92869483  0.29803292  0.50173090    -0.03100
C434        C  0.92428292  0.30913780  0.48224988    -0.08900
C435        C  0.92846265  0.32381637  0.50854037    -0.16500
C436        C  0.93692679  0.32741343  0.55463302     0.25600
C437        C  0.94118790  0.31632121  0.57439594    -0.18200
C438        C  0.93712862  0.30174948  0.54814601    -0.07100
C439        C  0.94227410  0.34296930  0.58064078    -0.13600
C440        C  0.94862222  0.35636503  0.60258178    -0.13300
C441        C  0.95858628  0.37273745  0.62720227     0.25500
C442        C  0.95456072  0.37466968  0.67536020    -0.18700
C443        C  0.96544236  0.39026262  0.70051369    -0.07200
C444        C  0.98051522  0.40394327  0.67774696    -0.03200
C445        C  0.98417124  0.40196966  0.62898405    -0.08600
C446        C  0.97327481  0.38648949  0.60393058    -0.16200
H447        H  0.91777663  0.30656715  0.44662706     0.12000
H448        H  0.92525400  0.33242855  0.49273507     0.11200
H449        H  0.94784359  0.31905048  0.60985617     0.11200
H450        H  0.94059795  0.29337968  0.56425889     0.11700
H451        H  0.94326934  0.36402842  0.69381952     0.11800
H452        H  0.96236065  0.39144698  0.73807282     0.11700
H453        H  0.99564110  0.41231332  0.61039835     0.11900
H454        H  0.97655463  0.38509979  0.56680356     0.10700
C455        C  0.01858343  0.47903674  0.88121070    -0.03100
C456        C  0.03372379  0.49537684  0.89135828    -0.08900
C457        C  0.03413483  0.50535268  0.92996144    -0.16500
C458        C  0.01946349  0.49912802  0.95903116     0.25600
C459        C  0.00445217  0.48270713  0.95004409    -0.18200
C460        C  0.00399638  0.47269118  0.91127861    -0.07100
C461        C  0.01953917  0.51000286  0.99617894    -0.13600
C462        C  0.01916669  0.51933620  0.02558462    -0.13300
C463        C  0.01771121  0.53006652  0.05978601     0.25500
C464        C  0.00153004  0.52422478  0.07971244    -0.18700
C465        C  0.99995206  0.53433823  0.11369784    -0.07200
C466        C  0.01456739  0.55048432  0.12814773    -0.03200
C467        C  0.03074239  0.55645924  0.10717106    -0.08600
C468        C  0.03230419  0.54626202  0.07318444    -0.16200
H469        H  0.04517287  0.50060860  0.86887519     0.12000
H470        H  0.04579312  0.51805693  0.93653025     0.11200
H471        H  0.99301087  0.47779697  0.97235730     0.11200
H472        H  0.99219170  0.46014085  0.90437652     0.11700
H473        H  0.99014186  0.51176420  0.06931264     0.11800
H474        H  0.98730789  0.52943026  0.12903380     0.11700
H475        H  0.04219988  0.56884152  0.11765374     0.11900
H476        H  0.04487933  0.55092904  0.05771475     0.10700
C477        C  0.00855787  0.54865634  0.36834626    -0.03100
C478        C  0.99413178  0.53784757  0.39847270    -0.08900
C479        C  0.99552406  0.52901768  0.43883973    -0.16500
C480        C  0.01133537  0.53093294  0.44951970     0.25600
C481        C  0.02571725  0.54173230  0.41982649    -0.18200
C482        C  0.02435984  0.55050869  0.37965630    -0.07100
C483        C  0.01294465  0.52176325  0.49040553    -0.13600
C484        C  0.01475745  0.51413554  0.52381895    -0.13300
C485        C  0.01646105  0.50463242  0.56348425     0.25500
C486        C  0.03148394  0.50461233  0.56866818    -0.18700
C487        C  0.03273924  0.49488329  0.60648601    -0.07200
C488        C  0.01895399  0.48507346  0.63948465    -0.03200
C489        C  0.00404179  0.48537665  0.63424015    -0.08600
C490        C  0.00281844  0.49505890  0.59657292    -0.16200
H491        H  0.98182984  0.53620814  0.39079859     0.12000
H492        H  0.98428105  0.52068114  0.46159531     0.11200
H493        H  0.03800909  0.54334180  0.42762962     0.11200
H494        H  0.03575317  0.55877322  0.35738280     0.11700
H495        H  0.04214524  0.51198056  0.54324304     0.11800
H496        H  0.04436235  0.49489051  0.60958979     0.11700
H497        H  0.99318404  0.47796799  0.65900278     0.11900
H498        H  0.99113957  0.49495031  0.59300407     0.10700
C499        C  0.63811343  0.92295780  0.51726806    -0.03100
C500        C  0.62039146  0.91447421  0.52832309    -0.08900
C501        C  0.61023441  0.91933950  0.50415941    -0.16500
C502        C  0.61769094  0.93266753  0.46866826     0.25600
C503        C  0.63528011  0.94108650  0.45763226    -0.18200
C504        C  0.64539348  0.93630769  0.48164887    -0.07100
C505        C  0.60771441  0.93818983  0.44369739    -0.13600
C506        C  0.60125807  0.94456263  0.42119615    -0.13300
C507        C  0.59547016  0.95397074  0.39431073     0.25500
C508        C  0.59983598  0.96991975  0.41212796    -0.18700
C509        C  0.59510856  0.97961701  0.38533919    -0.07200
C510        C  0.58585299  0.97350047  0.34023628    -0.03200
C511        C  0.58141657  0.95741889  0.32259233    -0.08600
C512        C  0.58625743  0.94774494  0.34941952    -0.16200
H513        H  0.61443003  0.90415350  0.55555859     0.12000
H514        H  0.59663038  0.91275148  0.51318348     0.11200
H515        H  0.64123074  0.95143248  0.43042084     0.11200
H516        H  0.65897438  0.94309928  0.47214665     0.11700
H517        H  0.60706386  0.97495985  0.44656556     0.11800
H518        H  0.59873034  0.99194479  0.39998774     0.11700
H519        H  0.57438395  0.95242291  0.28790031     0.11900
H520        H  0.58293877  0.93549329  0.33496032     0.10700
C521        C  0.67524543  0.88312070  0.45839918    -0.03100
C522        C  0.66107215  0.86607193  0.44960682    -0.08900
C523        C  0.66170494  0.85631006  0.41221058    -0.16500
C524        C  0.67646753  0.86342681  0.38293175     0.25600
C525        C  0.69054065  0.88049976  0.39069130    -0.18200
C526        C  0.68994962  0.89031563  0.42828548    -0.07100
C527        C  0.67726977  0.85293025  0.34615002    -0.13600
C528        C  0.67771500  0.84367040  0.31654895    -0.13300
C529        C  0.67848087  0.83269432  0.28146809     0.25500
C530        C  0.69375898  0.83890963  0.25533343    -0.18700
C531        C  0.69450157  0.82851311  0.22033647    -0.07200
C532        C  0.67992249  0.81174362  0.21083527    -0.03200
C533        C  0.66469185  0.80545514  0.23786507    -0.08600
C534        C  0.66399279  0.81589137  0.27304609    -0.16200
H535        H  0.64956328  0.86015143  0.47216732     0.12000
H536        H  0.65075365  0.84311872  0.40657227     0.11200
H537        H  0.70204119  0.88613105  0.36817946     0.11200
H538        H  0.70103511  0.90340653  0.43418726     0.11700
H539        H  0.70505804  0.85186285  0.26166123     0.11800
H540        H  0.70642104  0.83372597  0.20012876     0.11700
H541        H  0.65329055  0.79259009  0.23138818     0.11900
H542        H  0.65211564  0.81093077  0.29326946     0.10700
C543        C  0.67367637  0.87760583  0.69878256    -0.03100
C544        C  0.66186932  0.87039336  0.73805664    -0.08900
C545        C  0.66448731  0.86213419  0.77753632    -0.16500
C546        C  0.67886767  0.86094480  0.77801428     0.25600
C547        C  0.69038890  0.86770909  0.73841619    -0.18200
C548        C  0.68783310  0.87597378  0.69914409    -0.07100
C549        C  0.68196250  0.85295210  0.81918179    -0.13600
C550        C  0.68428713  0.84604754  0.85361788    -0.13300
C551        C  0.68554797  0.83692920  0.89523245     0.25500
C552        C  0.70035625  0.83668795  0.90331046    -0.18700
C553        C  0.70089527  0.82700681  0.94273208    -0.07200
C554        C  0.68660555  0.81748713  0.97435908    -0.03200
C555        C  0.67199309  0.81814551  0.96633432    -0.08600
C556        C  0.67148162  0.82775372  0.92714601    -0.16200
H557        H  0.65090139  0.87150782  0.73884180     0.12000
H558        H  0.65543776  0.85688261  0.80795642     0.11200
H559        H  0.70149816  0.86680121  0.73818588     0.11200
H560        H  0.69713890  0.88134638  0.66937675     0.11700
H561        H  0.71134891  0.84376261  0.87881564     0.11800
H562        H  0.71231712  0.82675502  0.94800673     0.11700
H563        H  0.66076871  0.81099280  0.98995531     0.11900
H564        H  0.65996657  0.82782792  0.92133982     0.10700
C565        C  0.70736614  0.95687908  0.66687550    -0.03100
C566        C  0.70045093  0.96029533  0.70738237    -0.08900
C567        C  0.71086507  0.97505803  0.73591223    -0.16500
C568        C  0.72839402  0.98666862  0.72469633     0.25600
C569        C  0.73552237  0.98334837  0.68472616    -0.18200
C570        C  0.72505761  0.96849965  0.65592033    -0.07100
C571        C  0.73849064  0.00234717  0.75295942    -0.13600
C572        C  0.74484669  0.01540802  0.77683368    -0.13300
C573        C  0.75013419  0.03096194  0.80315570     0.25500
C574        C  0.75935350  0.03511488  0.84818111    -0.18700
C575        C  0.76380461  0.05003979  0.87383849    -0.07200
C576        C  0.75894805  0.06086180  0.85482093    -0.03200
C577        C  0.74963401  0.05648728  0.80973194    -0.08600
C578        C  0.74530494  0.04169779  0.78416322    -0.16200
H579        H  0.68689272  0.95161801  0.71686563     0.12000
H580        H  0.70516297  0.97753025  0.76645472     0.11200
H581        H  0.74906773  0.99230731  0.67548895     0.11200
H582        H  0.73074255  0.96616315  0.62507655     0.11700
H583        H  0.76303387  0.02681618  0.86349204     0.11800
H584        H  0.77095527  0.05307297  0.90850156     0.11700
H585        H  0.74573776  0.06455583  0.79398231     0.11900
H586        H  0.73807278  0.03857687  0.74958281     0.10700
C587        C  0.76802516  0.71737132  0.33700778    -0.03100
C588        C  0.75758628  0.71081061  0.29398269    -0.08900
C589        C  0.75242457  0.72035346  0.26851379    -0.16500
C590        C  0.75755615  0.73662902  0.28550052     0.25600
C591        C  0.76810546  0.74340608  0.32806338    -0.18200
C592        C  0.77337413  0.73385574  0.35363486    -0.07100
C593        C  0.75130193  0.74584565  0.25992134    -0.13600
C594        C  0.74464038  0.75207406  0.23775189    -0.13300
C595        C  0.73500104  0.75788627  0.21220958     0.25500
C596        C  0.74198055  0.76913172  0.17135149    -0.18700
C597        C  0.73221869  0.77428805  0.14632474    -0.07200
C598        C  0.71534260  0.76819189  0.16186832    -0.03200
C599        C  0.70849868  0.75690900  0.20290549    -0.08600
C600        C  0.71823827  0.75181682  0.22777762    -0.16200
H601        H  0.75327334  0.69818839  0.28006150     0.12000
H602        H  0.74423381  0.71492286  0.23580161     0.11200
H603        H  0.77210164  0.75596602  0.34175526     0.11200
H604        H  0.78137363  0.73922147  0.38666705     0.11700
H605        H  0.75491620  0.77385830  0.15875572     0.11800
H606        H  0.73782872  0.78297431  0.11487362     0.11700
H607        H  0.69555897  0.75197447  0.21589388     0.11900
H608        H  0.71263964  0.74305995  0.25912797     0.10700
C609        C  0.97536662  0.59013874  0.16027589    -0.03100
C610        C  0.95772713  0.58250719  0.17069890    -0.08900
C611        C  0.94785744  0.58682908  0.14236641    -0.16500
C612        C  0.95547005  0.59874076  0.10317690     0.25600
C613        C  0.97295235  0.60621124  0.09232916    -0.18200
C614        C  0.98281205  0.60196806  0.12056965    -0.07100
C615        C  0.94582974  0.60418884  0.07573664    -0.13600
C616        C  0.93922338  0.61054102  0.05393559    -0.13300
C617        C  0.93325042  0.62039836  0.03095274     0.25500
C618        C  0.94050065  0.63734575  0.04646978    -0.18700
C619        C  0.93524772  0.64733940  0.02453188    -0.07200
C620        C  0.92262611  0.64058622  0.98645477    -0.03200
C621        C  0.91529717  0.62350199  0.97097732    -0.08600
C622        C  0.92059767  0.61345864  0.99314386    -0.16200
H623        H  0.95162880  0.57335609  0.20095457     0.12000
H624        H  0.93436586  0.58104190  0.15139597     0.11200
H625        H  0.97905099  0.61551779  0.06237868     0.11200
H626        H  0.99633682  0.60804891  0.11139454     0.11700
H627        H  0.95031278  0.64289462  0.07554619     0.11800
H628        H  0.94116654  0.66043338  0.03734322     0.11700
H629        H  0.90555244  0.61795446  0.94176818     0.11900
H630        H  0.91489630  0.60035633  0.98070533     0.10700
C631        C  0.88054423  0.67753095  0.04252761    -0.01300
C632        C  0.86375799  0.66303860  0.05242971    -0.08900
C633        C  0.85369184  0.66366879  0.08887254    -0.16500
C634        C  0.86023774  0.67877033  0.11596213     0.25600
C635        C  0.87702729  0.69322562  0.10690761    -0.18200
C636        C  0.88716059  0.69262191  0.07034656    -0.07100
C637        C  0.84954524  0.67934105  0.15258327    -0.13600
C638        C  0.84028390  0.67943055  0.18301732    -0.13300
C639        C  0.82961547  0.67982192  0.22011205     0.25500
C640        C  0.83655992  0.69435906  0.25008745    -0.18700
C641        C  0.82649610  0.69479219  0.28693712    -0.07200
C642        C  0.80930090  0.68066186  0.29439802    -0.03200
C643        C  0.80233132  0.66610436  0.26390665    -0.08600
C644        C  0.81246397  0.66570314  0.22690084    -0.16200
H645        H  0.85830778  0.65122201  0.03166609     0.12000
H646        H  0.84074347  0.65241250  0.09565247     0.11200
H647        H  0.88222238  0.70498201  0.12779934     0.11200
H648        H  0.90003721  0.70396284  0.06349498     0.11700
H649        H  0.84980485  0.70534140  0.24516290     0.11800
H650        H  0.83224028  0.70619273  0.30979061     0.11700
H651        H  0.78913368  0.65505476  0.26879529     0.11900
H652        H  0.80696960  0.65437345  0.20382168     0.10700
C653        C  0.87673433  0.67361240  0.80150856    -0.03100
C654        C  0.87930172  0.68949155  0.78813215    -0.08900
C655        C  0.86948989  0.69040564  0.75012879    -0.16500
C656        C  0.85692043  0.67549331  0.72486728     0.25600
C657        C  0.85429384  0.65959252  0.73756722    -0.18200
C658        C  0.86418421  0.65864838  0.77570506    -0.07100
C659        C  0.84691621  0.67675602  0.68584125    -0.13600
C660        C  0.83913686  0.67861614  0.65295264    -0.13300
C661        C  0.83018151  0.68073346  0.61243521     0.25500
C662        C  0.82736510  0.69398295  0.61266051    -0.18700
C663        C  0.81855878  0.69582369  0.57297850    -0.07200
C664        C  0.81240702  0.68433211  0.53291715    -0.03200
C665        C  0.81549242  0.67121850  0.53294475    -0.08600
C666        C  0.82433010  0.66946794  0.57231059    -0.16200
H667        H  0.88892717  0.70127493  0.80707688     0.12000
H668        H  0.87169528  0.70277767  0.74050915     0.11200
H669        H  0.84461427  0.64796036  0.71809329     0.11200
H670        H  0.86195520  0.64626687  0.78518893     0.11700
H671        H  0.83188447  0.70281090  0.64356127     0.11800
H672        H  0.81627945  0.70596689  0.57403951     0.11700
H673        H  0.81096680  0.66219491  0.50255540     0.11900
H674        H  0.82649987  0.65923655  0.57157664     0.10700
C675        C  0.95640964  0.71151148  0.84494667    -0.03100
C676        C  0.96699500  0.72915524  0.85688349    -0.08900
C677        C  0.98164127  0.74052886  0.82837053    -0.16500
C678        C  0.98574266  0.73434778  0.78772835     0.25600
C679        C  0.97521257  0.71684337  0.77573253    -0.18200
C680        C  0.96067474  0.70552474  0.80400970    -0.07100
C681        C  0.00126388  0.74541996  0.75968300    -0.13600
C682        C  0.01444749  0.75243243  0.73610879    -0.13300
C683        C  0.03028769  0.75811313  0.71074718     0.25500
C684        C  0.03328636  0.76494288  0.66254761    -0.18700
C685        C  0.04818431  0.76901048  0.63721694    -0.07200
C686        C  0.06003972  0.76603504  0.65974529    -0.03200
C687        C  0.05699384  0.75942849  0.70837483    -0.08600
C688        C  0.04226144  0.75553159  0.73362299    -0.16200
H689        H  0.96396517  0.73411876  0.88808415     0.12000
H690        H  0.98981641  0.75405200  0.83824624     0.11200
H691        H  0.97834912  0.71188612  0.74471386     0.11200
H692        H  0.95278225  0.69202713  0.79377788     0.11700
H693        H  0.02400198  0.76683875  0.64430619     0.11800
H694        H  0.05022304  0.77407443  0.59979066     0.11700
H695        H  0.06594538  0.75711172  0.72685838     0.11900
H696        H  0.04002649  0.75015363  0.77073497     0.10700
C697        C  0.64475939  0.73627246  0.01092935    -0.03100
C698        C  0.64709919  0.73648318  0.95955778    -0.08900
C699        C  0.63636956  0.72171691  0.93132107    -0.16500
C700        C  0.62319051  0.70645442  0.95396095     0.25600
C701        C  0.62040610  0.70619963  0.00497485    -0.18200
C702        C  0.63106345  0.72110993  0.03335333    -0.07100
C703        C  0.61379997  0.69085488  0.92523835    -0.13600
C704        C  0.60801886  0.67813413  0.90021702    -0.13300
C705        C  0.60344676  0.66317216  0.87198136     0.25500
C706        C  0.59196090  0.65769740  0.83139099    -0.18700
C707        C  0.58789135  0.64316503  0.80431515    -0.07200
C708        C  0.59534816  0.63405581  0.81759145    -0.03200
C709        C  0.60702429  0.63984311  0.85798178    -0.08600
C710        C  0.61101128  0.65425495  0.88490275    -0.16200
H711        H  0.65745177  0.74803743  0.94124873     0.12000
H712        H  0.63870990  0.72206524  0.89200938     0.11200
H713        H  0.61032757  0.69439316  0.02298267     0.11200
H714        H  0.62902951  0.72061478  0.07287795     0.11700
H715        H  0.58612421  0.66459342  0.82083439     0.11800
H716        H  0.57883695  0.63897644  0.77343710     0.11700
H717        H  0.61296650  0.63310965  0.86924242     0.11900
H718        H  0.61999870  0.65842971  0.91598928     0.10700
C719        C  0.73204280  0.64893827  0.48946082    -0.03100
C720        C  0.71911346  0.63240363  0.47195503    -0.08900
C721        C  0.70367517  0.62193136  0.49832999    -0.16500
C722        C  0.70111755  0.62785143  0.54253106     0.25600
C723        C  0.71405365  0.64417093  0.56040242    -0.18200
C724        C  0.72937424  0.65463557  0.53412318    -0.07100
C725        C  0.68494237  0.61786935  0.56856048    -0.13600
C726        C  0.67165729  0.61155113  0.59140070    -0.13300
C727        C  0.65618967  0.60644945  0.61805087     0.25500
C728        C  0.65036264  0.59454174  0.65729753    -0.18700
C729        C  0.63576796  0.59044825  0.68429407    -0.07200
C730        C  0.62689774  0.59826145  0.67223694    -0.03200
C731        C  0.63279862  0.61007959  0.63250461    -0.08600
C732        C  0.64734430  0.61415931  0.60575753    -0.16200
H733        H  0.72082885  0.62770111  0.43767370     0.12000
H734        H  0.69367677  0.60935602  0.48396068     0.11200
H735        H  0.71218743  0.64893191  0.59436141     0.11200
H736        H  0.73910543  0.66727022  0.54871312     0.11700
H737        H  0.65716807  0.58855350  0.66728956     0.11800
H738        H  0.63145356  0.58123526  0.71452986     0.11700
H739        H  0.62624240  0.61629668  0.62224244     0.11900
H740        H  0.65179156  0.62346616  0.57569262     0.10700
C741        C  0.55019653  0.55320016  0.87295835    -0.03100
C742        C  0.53428540  0.55112023  0.88220784    -0.08900
C743        C  0.52357463  0.54019097  0.92007586    -0.16500
C744        C  0.52858685  0.53118498  0.94921730     0.25600
C745        C  0.54439283  0.53314204  0.94037383    -0.18200
C746        C  0.55517343  0.54411669  0.90241227    -0.07100
C747        C  0.51747736  0.52005756  0.98830366    -0.13600
C748        C  0.50787691  0.51093604  0.02088615    -0.13300
C749        C  0.49639137  0.50004884  0.05970382     0.25500
C750        C  0.50092783  0.49097740  0.09042207    -0.18700
C751        C  0.48969564  0.48014118  0.12762730    -0.07200
C752        C  0.47374117  0.47822609  0.13458579    -0.03200
C753        C  0.46935807  0.48755067  0.10396923    -0.08600
C754        C  0.48063815  0.49839834  0.06664616    -0.16200
H755        H  0.53007364  0.55791626  0.86009414     0.12000
H756        H  0.51137325  0.53876650  0.92662480     0.11200
H757        H  0.54837161  0.52619988  0.96278070     0.11200
H758        H  0.56731715  0.54543057  0.89596431     0.11700
H759        H  0.51310920  0.49220685  0.08545314     0.11800
H760        H  0.49348064  0.47319788  0.15080178     0.11700
H761        H  0.45719762  0.48636808  0.10864207     0.11900
H762        H  0.47704377  0.50542132  0.04307295     0.10700
C763        C  0.54448275  0.55044279  0.63946470    -0.03100
C764        C  0.54197841  0.53415746  0.63733330    -0.08900
C765        C  0.53110971  0.52226533  0.60137207    -0.16500
C766        C  0.52259306  0.52647163  0.56716150     0.25600
C767        C  0.52472288  0.54251190  0.56942225    -0.18200
C768        C  0.53562436  0.55447558  0.60551855    -0.07100
C769        C  0.51217346  0.51453771  0.52869732    -0.13600
C770        C  0.50381715  0.50496785  0.49519669    -0.13300
C771        C  0.49391171  0.49456051  0.45357941     0.25500
C772        C  0.48631532  0.50038293  0.42132090    -0.18700
C773        C  0.47653106  0.49041772  0.38080958    -0.07200
C774        C  0.47419716  0.47445108  0.37210132    -0.03200
C775        C  0.48201724  0.46873114  0.40440381    -0.08600
C776        C  0.49186384  0.47878136  0.44504540    -0.16200
H777        H  0.54858234  0.53065342  0.66312590     0.12000
H778        H  0.52953323  0.50988446  0.59984884     0.11200
H779        H  0.51814869  0.54584265  0.54291944     0.11200
H780        H  0.53730925  0.56690429  0.60644236     0.11700
H781        H  0.48788779  0.51260667  0.42762500     0.11800
H782        H  0.47064794  0.49515300  0.35659394     0.11700
H783        H  0.48040108  0.45647799  0.39850276     0.11900
H784        H  0.49777768  0.47422744  0.46986951     0.10700
C785        C  0.43421783  0.05335660  0.67991360    -0.03100
C786        C  0.44333069  0.07125963  0.68781900    -0.08900
C787        C  0.43861132  0.08118287  0.66168804    -0.16500
C788        C  0.42475649  0.07330495  0.62747810     0.25600
C789        C  0.41562892  0.05550892  0.61982042    -0.18200
C790        C  0.42030030  0.04563667  0.64567981    -0.07100
C791        C  0.41937250  0.08308037  0.60067242    -0.13600
C792        C  0.41292360  0.08936092  0.57758827    -0.13300
C793        C  0.40295963  0.09468780  0.55139183     0.25500
C794        C  0.38536609  0.08645935  0.56220948    -0.18700
C795        C  0.37531412  0.09110187  0.53697653    -0.07200
C796        C  0.38264587  0.10407559  0.50021208    -0.03200
C797        C  0.40034665  0.11230113  0.48926642    -0.08600
C798        C  0.41044558  0.10761882  0.51474911    -0.16200
H799        H  0.45410448  0.07756468  0.71388461     0.12000
H800        H  0.44573521  0.09494619  0.66817630     0.11200
H801        H  0.40483165  0.04921661  0.59376948     0.11200
H802        H  0.41297136  0.03189303  0.63872462     0.11700
H803        H  0.37936903  0.07637712  0.59019212     0.11800
H804        H  0.36172935  0.08445848  0.54627369     0.11700
H805        H  0.40635139  0.12231099  0.46113416     0.11900
H806        H  0.42403703  0.11403643  0.50580498     0.10700
C807        C  0.31272699  0.06737161  0.35179179    -0.03100
C808        C  0.31936581  0.06273804  0.31346547    -0.08900
C809        C  0.30858383  0.04754154  0.28702092    -0.16500
C810        C  0.29095872  0.03668976  0.29820641     0.25600
C811        C  0.28411011  0.04118228  0.33611700    -0.18200
C812        C  0.29494942  0.05648083  0.36282263    -0.07100
C813        C  0.28043390  0.02071407  0.27153301    -0.13600
C814        C  0.27401387  0.00761981  0.24781034    -0.13300
C815        C  0.26900330  0.99240727  0.22008534     0.25500
C816        C  0.27429750  0.98183487  0.23711681    -0.18700
C817        C  0.27054856  0.96762497  0.20942993    -0.07200
C818        C  0.26139498  0.96370815  0.16414361    -0.03200
C819        C  0.25603275  0.97433769  0.14722628    -0.08600
C820        C  0.25987527  0.98865493  0.17502598    -0.16200
H821        H  0.33297346  0.07083731  0.30395164     0.12000
H822        H  0.31405410  0.04417543  0.25799760     0.11200
H823        H  0.27048127  0.03283528  0.34525394     0.11200
H824        H  0.28947149  0.05976869  0.39198289     0.11700
H825        H  0.28149397  0.98467661  0.27166237     0.11800
H826        H  0.27480194  0.95966733  0.22363441     0.11700
H827        H  0.24893748  0.97161495  0.11257728     0.11900
H828        H  0.25585476  0.99684991  0.16121813     0.10700
C829        C  0.33716397  0.21010876  0.03241047    -0.03100
C830        C  0.32316717  0.19993593  0.06452521    -0.08900
C831        C  0.32436807  0.19015795  0.10237492    -0.16500
C832        C  0.33954213  0.19043826  0.10844994     0.25600
C833        C  0.35338805  0.20037474  0.07625192    -0.18200
C834        C  0.35222439  0.21010408  0.03861166    -0.07100
C835        C  0.34122619  0.18088281  0.14805643    -0.13600
C836        C  0.34320536  0.17330569  0.18129871    -0.13300
C837        C  0.34509986  0.16427855  0.22208396     0.25500
C838        C  0.36014136  0.16430384  0.22791996    -0.18700
C839        C  0.36176296  0.15550400  0.26796248    -0.07200
C840        C  0.34831644  0.14657305  0.30248468    -0.03200
C841        C  0.33332571  0.14669397  0.29619189    -0.08600
C842        C  0.33175525  0.15546696  0.25643232    -0.16200
H843        H  0.31142466  0.19968747  0.06072170     0.12000
H844        H  0.31354264  0.18251267  0.12710598     0.11200
H845        H  0.36518538  0.20072622  0.08048470     0.11200
H846        H  0.36324977  0.21777782  0.01457546     0.11700
H847        H  0.37058495  0.17109675  0.20155022     0.11800
H848        H  0.37341649  0.15558955  0.27173692     0.11700
H849        H  0.32271585  0.13995365  0.32205058     0.11900
H850        H  0.32008182  0.15535335  0.25246913     0.10700
C851        C  0.33951592  0.21533166  0.79539158    -0.03100
C852        C  0.35448441  0.22116878  0.76755841    -0.08900
C853        C  0.35434534  0.21074657  0.73057904    -0.16500
C854        C  0.33927197  0.19440219  0.72108635     0.25600
C855        C  0.32428324  0.18860816  0.74825232    -0.18200
C856        C  0.32438161  0.19898866  0.78507705    -0.07100
C857        C  0.33923954  0.18345471  0.68406986    -0.13600
C858        C  0.33950618  0.17439206  0.65328991    -0.13300
C859        C  0.34066750  0.16418283  0.61619394     0.25500
C860        C  0.32686116  0.14703214  0.60789010    -0.18700
C861        C  0.32815822  0.13725685  0.57163774    -0.07200
C862        C  0.34330109  0.14454479  0.54336400    -0.03200
C863        C  0.35708936  0.16176645  0.55212302    -0.08600
C864        C  0.35576228  0.17148912  0.58825019    -0.16200
H865        H  0.36631025  0.23368242  0.77467362     0.12000
H866        H  0.36602446  0.21536335  0.70971032     0.11200
H867        H  0.31254742  0.17599829  0.74125986     0.11200
H868        H  0.31264228  0.19411226  0.80588479     0.11700
H869        H  0.31510998  0.14123652  0.62933703     0.11800
H870        H  0.31732837  0.12404200  0.56566689     0.11700
H871        H  0.36890538  0.16776650  0.53092514     0.11900
H872        H  0.36652689  0.18473838  0.59434584     0.10700
C873        C  0.42451460  0.39437000  0.18807820    -0.03100
C874        C  0.43160441  0.38514734  0.20404117    -0.08900
C875        C  0.42676107  0.36975380  0.18061700    -0.16500
C876        C  0.41482346  0.36348935  0.14106243     0.25600
C877        C  0.40764910  0.37254377  0.12537861    -0.18200
C878        C  0.41244985  0.38785757  0.14860720    -0.07100
C879        C  0.40967415  0.34778943  0.11605749    -0.13600
C880        C  0.40376396  0.33478650  0.09231261    -0.13300
C881        C  0.39465573  0.31935137  0.06291039     0.25500
C882        C  0.38037294  0.30425978  0.08299911    -0.18700
C883        C  0.37015115  0.28976053  0.05334609    -0.07200
C884        C  0.37408503  0.29008878  0.00309515    -0.03200
C885        C  0.38878016  0.30510505  0.98338022    -0.08600
C886        C  0.39896041  0.31972201  0.01316182    -0.16200
H887        H  0.44094437  0.38988076  0.23430549     0.12000
H888        H  0.43235577  0.36280858  0.19316476     0.11200
H889        H  0.39835974  0.36778872  0.09493633     0.11200
H890        H  0.40676397  0.39464860  0.13542708     0.11700
H891        H  0.37684576  0.30384123  0.12128451     0.11800
H892        H  0.35898800  0.27832620  0.06967341     0.11700
H893        H  0.39207042  0.30570306  0.94479583     0.11900
H894        H  0.40991067  0.33141609  0.99711697     0.10700
C895        C  0.09853892  0.38330949  0.00547121    -0.03100
C896        C  0.08502085  0.37552350  0.96999741    -0.08900
C897        C  0.08099364  0.38545141  0.94156080    -0.16500
C898        C  0.09038791  0.40333366  0.94794079     0.25600
C899        C  0.10371037  0.41122992  0.98369742    -0.18200
C900        C  0.10778629  0.40127361  0.01232395    -0.07100
C901        C  0.08587695  0.41324015  0.91814745    -0.13600
C902        C  0.08005505  0.41968465  0.89296168    -0.13300
C903        C  0.07038551  0.42504790  0.86551153     0.25500
C904        C  0.07827394  0.43835656  0.83002974    -0.18700
C905        C  0.06849094  0.44347661  0.80487610    -0.07200
C906        C  0.05075103  0.43530425  0.81510813    -0.03200
C907        C  0.04296177  0.42172070  0.84996052    -0.08600
C908        C  0.05269033  0.41667123  0.87487149    -0.16200
H909        H  0.07761283  0.36172717  0.96384433     0.12000
H910        H  0.07056095  0.37916112  0.91437423     0.11200
H911        H  0.11098017  0.42505224  0.98929228     0.11200
H912        H  0.11824052  0.40761997  0.03937265     0.11700
H913        H  0.09195963  0.44486585  0.82221386     0.11800
H914        H  0.07481656  0.45394256  0.77815547     0.11700
H915        H  0.02932667  0.41509345  0.85860742     0.11900
H916        H  0.04640558  0.40629163  0.90192630     0.10700
C917        C  0.06589503  0.31530049  0.16850593    -0.03100
C918        C  0.05340898  0.29821883  0.15397596    -0.08900
C919        C  0.03876654  0.28751037  0.18318065    -0.16500
C920        C  0.03655391  0.29375260  0.22725091     0.25600
C921        C  0.04914476  0.31058140  0.24245341    -0.18200
C922        C  0.06370200  0.32127545  0.21339086    -0.07100
C923        C  0.02081475  0.28364457  0.25511870    -0.13600
C924        C  0.00760891  0.27725441  0.27833807    -0.13300
C925        C  0.99203885  0.27212784  0.30434913     0.25500
C926        C  0.98194700  0.27799876  0.28708436    -0.18700
C927        C  0.96736161  0.27410431  0.31320484    -0.07200
C928        C  0.96260026  0.26421209  0.35703880    -0.03200
C929        C  0.97268290  0.25817978  0.37401539    -0.08600
C930        C  0.98739140  0.26218749  0.34783978    -0.16200
H931        H  0.05481160  0.29325651  0.11973454     0.12000
H932        H  0.02902694  0.27452816  0.17090250     0.11200
H933        H  0.04751778  0.31558740  0.27630531     0.11200
H934        H  0.07313108  0.33432155  0.22579468     0.11700
H935        H  0.98546910  0.28577028  0.25362900     0.11800
H936        H  0.95979428  0.27883598  0.29897797     0.11700
H937        H  0.96927271  0.25049445  0.40757597     0.11900
H938        H  0.99519351  0.25767672  0.36170041     0.10700
C939        C  0.28991531  0.37817505  0.51527022    -0.03100
C940        C  0.29654216  0.37112668  0.48491994    -0.08900
C941        C  0.31160880  0.38183497  0.45776058    -0.16500
C942        C  0.32027384  0.39977814  0.46010768     0.25600
C943        C  0.31388412  0.40699550  0.49049356    -0.18200
C944        C  0.29878570  0.39624233  0.51811175    -0.07100
C945        C  0.33583530  0.41047376  0.43165809    -0.13600
C946        C  0.34894192  0.41761670  0.40758269    -0.13300
C947        C  0.36471621  0.42401231  0.38071917     0.25500
C948        C  0.37827303  0.42405537  0.40406169    -0.18700
C949        C  0.39295529  0.42848197  0.37746215    -0.07200
C950        C  0.39436606  0.43299605  0.32697790    -0.03200
C951        C  0.38097147  0.43349528  0.30398247    -0.08600
C952        C  0.36614638  0.42890392  0.33071018    -0.16200
H953        H  0.29005767  0.35727393  0.48210905     0.12000
H954        H  0.31647741  0.37609212  0.43472262     0.11200
H955        H  0.32052884  0.42088307  0.49276824     0.11200
H956        H  0.29392565  0.40201047  0.54101840     0.11700
H957        H  0.37731184  0.42024441  0.44261456     0.11800
H958        H  0.40313151  0.42813807  0.39634897     0.11700
H959        H  0.38174182  0.43694151  0.26518050     0.11900
H960        H  0.35567256  0.42880859  0.31214642     0.10700
C961        C  0.30618884  0.25962332  0.84905092    -0.03100
C962        C  0.28873498  0.25231431  0.86119047    -0.08900
C963        C  0.27901032  0.25742443  0.83565822    -0.16500
C964        C  0.28660431  0.26985311  0.79769671     0.25600
C965        C  0.30399188  0.27724186  0.78580207    -0.18200
C966        C  0.31369351  0.27219537  0.81118774    -0.07100
C967        C  0.27688088  0.27540646  0.77117715    -0.13600
C968        C  0.27019180  0.28147260  0.74821058    -0.13300
C969        C  0.26408306  0.29067095  0.72162191     0.25500
C970        C  0.25180861  0.28289920  0.68297474    -0.18700
C971        C  0.24667101  0.29238517  0.65630145    -0.07200
C972        C  0.25381180  0.30976906  0.66798201    -0.03200
C973        C  0.26595795  0.31732194  0.70720474    -0.08600
C974        C  0.27103793  0.30787469  0.73365580    -0.16200
H975        H  0.28260698  0.24262974  0.89015753     0.12000
H976        H  0.26558733  0.25166889  0.84545770     0.11200
H977        H  0.31007625  0.28692637  0.75677284     0.11200
H978        H  0.32709656  0.27810595  0.80088306     0.11700
H979        H  0.24634460  0.26959226  0.67316166     0.11800
H980        H  0.23727131  0.28620170  0.62641736     0.11700
H981        H  0.27169546  0.33065178  0.71731863     0.11900
H982        H  0.28056148  0.31407822  0.76328966     0.10700
C983        C  0.14578141  0.35327868  0.19877236    -0.03100
C984        C  0.15215150  0.36501515  0.23823734    -0.08900
C985        C  0.16111497  0.36336138  0.27782718    -0.16500
C986        C  0.16382028  0.35003011  0.27809315     0.25600
C987        C  0.15792834  0.33865486  0.23826594    -0.18200
C988        C  0.14898851  0.34024843  0.19895648    -0.07100
C989        C  0.17236785  0.34768910  0.31928729    -0.13600
C990        C  0.17956232  0.34541179  0.35302754    -0.13300
C991        C  0.18882752  0.34364355  0.39330979     0.25500
C992        C  0.18889611  0.32873582  0.39879180    -0.18700
C993        C  0.19858327  0.32757615  0.43718357    -0.07200
C994        C  0.20827534  0.34134435  0.47033536    -0.03200
C995        C  0.20788141  0.35611671  0.46471705    -0.08600
C996        C  0.19825292  0.35723850  0.42655922    -0.16200
H997        H  0.14982350  0.37512945  0.23909255     0.12000
H998        H  0.16569243  0.37228694  0.30848653     0.11200
H999        H  0.16001583  0.32836121  0.23792153     0.11200
H1000       H  0.14431949  0.33104600  0.16900787     0.11700
H1001       H  0.18162478  0.31811728  0.37317386     0.11800
H1002       H  0.19862271  0.31604738  0.44066404     0.11700
H1003       H  0.21516396  0.36694657  0.48962783     0.11900
H1004       H  0.19830833  0.36882210  0.42270393     0.10700
C1005       C  0.21130309  0.34483696  0.70778187    -0.03100
C1006       C  0.21754038  0.35977746  0.73596803    -0.08900
C1007       C  0.20739842  0.35982384  0.77361512    -0.16500
C1008       C  0.19094325  0.34495745  0.78345705     0.25600
C1009       C  0.18463563  0.33008902  0.75538018    -0.18200
C1010       C  0.19471855  0.33001529  0.71781481    -0.07100
C1011       C  0.18047131  0.34487314  0.82226648    -0.13600
C1012       C  0.17154889  0.34469142  0.85448138    -0.13300
C1013       C  0.16113144  0.34500838  0.89271875     0.25500
C1014       C  0.14382549  0.33113388  0.89895514    -0.18700
C1015       C  0.13366163  0.33178160  0.93538417    -0.07200
C1016       C  0.14070927  0.34637605  0.96573679    -0.03200
C1017       C  0.15815451  0.36014367  0.95946037    -0.08600
C1018       C  0.16827362  0.35944129  0.92328327    -0.16200
H1019       H  0.23022829  0.37138208  0.72897578     0.12000
H1020       H  0.21239472  0.37142693  0.79507395     0.11200
H1021       H  0.17192082  0.31852755  0.76257182     0.11200
H1022       H  0.18952593  0.31831521  0.69669267     0.11700
H1023       H  0.13816819  0.31988013  0.87549694     0.11800
H1024       H  0.12029933  0.32097367  0.93951846     0.11700
H1025       H  0.16401032  0.37150530  0.98251862     0.11900
H1026       H  0.18164718  0.37022824  0.91891636     0.10700
loop_ 
_geom_bond_atom_site_label_1 
_geom_bond_atom_site_label_2 
_geom_bond_distance 
_geom_bond_site_symmetry_2 
_ccdc_geom_bond_type 
O1            C4   1.271       .  A
O1           Cd6   2.495       .  S
C2           O11   1.267       .  A
C2            O7   1.272       .  A
C2         C1005   1.480       .  S
O3            C9   1.274       .  A
O3           Cd6   2.507       .  S
C4           O12   1.266       .  A
C4          C939   1.481       .  S
C5           O10   1.273       .  A
C5            O8   1.266       .  A
C5          C972   1.486       .  S
Cd6          O13   2.400       .  S
Cd6          O12   2.423       .  S
Cd6          O11   2.420       .  S
Cd6           O7   2.478       .  S
Cd6          O10   2.510       .  S
Cd6           O8   2.421       .  S
C9           O13   1.264       .  A
C9          C994   1.481       .  S
O14          C17   1.272       .  A
O14         Cd19   2.485       .  S
C15          O24   1.266       .  A
C15          O20   1.272       .  A
C15         C917   1.480       .  S
O16          C22   1.274       .  A
O16         Cd19   2.500       .  S
C17          O25   1.266       .  A
C17        C1016   1.480   1_554  S
C18          O23   1.272       .  A
C18          O21   1.266       .  A
C18         C895   1.483       .  S
Cd19         O26   2.388       .  S
Cd19         O25   2.417       .  S
Cd19         O24   2.421       .  S
Cd19         O20   2.486       .  S
Cd19         O23   2.496       .  S
Cd19         O21   2.429       .  S
C22          O26   1.265       .  A
C22         C983   1.478       .  S
O27          C30   1.273       .  A
O27         Cd32   2.483       .  S
C28          O37   1.266       .  A
C28          O33   1.273       .  A
C28         C884   1.478   1_556  S
O29          C35   1.273       .  A
O29         Cd32   2.505       .  S
C30          O38   1.266       .  A
C30         C851   1.480       .  S
C31          O36   1.274       .  A
C31          O34   1.266       .  A
C31         C829   1.484   1_556  S
Cd32         O39   2.423       .  S
Cd32         O38   2.414       .  S
Cd32         O37   2.402       .  S
Cd32         O33   2.495       .  S
Cd32         O36   2.506       .  S
Cd32         O34   2.412       .  S
C35          O39   1.266       .  A
C35         C961   1.485       .  S
O40          C43   1.271       .  A
O40         Cd45   2.492       .  S
C41          O50   1.267       .  A
C41          O46   1.271       .  A
C41         C862   1.481       .  S
O42          C48   1.272       .  A
O42         Cd45   2.512       .  S
C43          O51   1.266       .  A
C43         C807   1.481       .  S
C44          O49   1.273       .  A
C44          O47   1.264       .  A
C44         C840   1.483       .  S
Cd45         O52   2.428       .  S
Cd45         O51   2.420       .  S
Cd45         O50   2.436       .  S
Cd45         O46   2.479       .  S
Cd45         O49   2.513       .  S
Cd45         O47   2.406       .  S
C48          O52   1.266       .  A
C48         C796   1.486       .  S
O53          C56   1.271       .  A
O53         Cd58   2.478       .  S
C54          O63   1.265       .  A
C54          O59   1.272       .  A
C54         C741   1.477       .  S
O55          C61   1.272       .  A
O55         Cd58   2.485       .  S
C56          O64   1.267       .  A
C56         C730   1.479       .  S
C57          O62   1.273       .  A
C57          O60   1.264       .  A
C57         C763   1.473       .  S
Cd58         O65   2.409       .  S
Cd58         O64   2.426       .  S
Cd58         O63   2.410       .  S
Cd58         O59   2.477       .  S
Cd58         O62   2.479       .  S
Cd58         O60   2.386       .  S
C61          O65   1.266       .  A
C61         C708   1.479       .  S
O66          C69   1.271       .  A
O66         Cd71   2.481       .  S
C67          O76   1.265       .  A
C67          O72   1.271       .  A
C67         C950   1.479       .  S
O68          C74   1.269       .  A
O68         Cd71   2.479       .  S
C69          O77   1.265       .  A
C69         C752   1.477       .  S
C70          O75   1.271       .  A
C70          O73   1.265       .  A
C70         C774   1.472       .  S
Cd71         O78   2.430       .  S
Cd71         O77   2.413       .  S
Cd71         O76   2.412       .  S
Cd71         O72   2.499       .  S
Cd71         O75   2.465       .  S
Cd71         O73   2.399       .  S
C74          O78   1.266       .  A
C74         C873   1.479       .  S
O79          C82   1.270   1_556  A
O79         Cd84   2.475       .  S
C80          O89   1.266       .  A
C80          O85   1.271       .  A
C80         C675   1.478       .  S
O81          C87   1.271       .  A
O81         Cd84   2.500       .  S
C82          O90   1.266   1_554  A
C82         C631   1.477       .  S
C83          O88   1.272       .  A
C83          O86   1.264       .  A
C83         C653   1.479       .  S
Cd84         O91   2.424       .  S
Cd84         O90   2.420       .  S
Cd84         O89   2.406       .  S
Cd84         O85   2.486       .  S
Cd84         O88   2.499       .  S
Cd84         O86   2.404       .  S
C87          O91   1.266       .  A
C87         C620   1.483       .  S
O92          C95   1.272       .  A
O92         Cd97   2.479       .  S
C93         O102   1.266       .  A
C93          O98   1.271       .  A
C93         C719   1.479       .  S
O94         C100   1.274       .  A
O94         Cd97   2.502       .  S
C95         O103   1.267       .  A
C95         C642   1.478       .  S
C96         O101   1.273       .  A
C96          O99   1.265       .  A
C96         C587   1.484       .  S
Cd97        O104   2.404       .  S
Cd97        O103   2.414       .  S
Cd97        O102   2.414       .  S
Cd97         O98   2.488       .  S
Cd97        O101   2.509       .  S
Cd97         O99   2.417       .  S
C100        O104   1.265       .  A
C100        C664   1.480       .  S
O105        C108   1.272       .  A
O105       Cd110   2.492       .  S
C106        O115   1.266       .  A
C106        O111   1.272       .  A
C106        C521   1.479       .  S
O107        C113   1.274       .  A
O107       Cd110   2.498       .  S
C108        O116   1.266       .  A
C108        C565   1.481       .  S
C109        O114   1.273       .  A
C109        O112   1.266       .  A
C109        C499   1.484       .  S
Cd110       O117   2.405       .  S
Cd110       O116   2.414       .  S
Cd110       O115   2.416       .  S
Cd110       O111   2.482       .  S
Cd110       O114   2.505       .  S
Cd110       O112   2.414       .  S
C113        O117   1.265       .  A
C113        C543   1.480       .  S
O118        C121   1.270       .  A
O118       Cd123   2.503       .  S
C119        O128   1.266       .  A
C119        O124   1.271       .  A
C119        C532   1.478       .  S
O120        C126   1.272       .  A
O120       Cd123   2.506       .  S
C121        O129   1.265       .  A
C121        C697   1.478       .  S
C122        O127   1.273       .  A
C122        O125   1.265       .  A
C122        C554   1.483   1_554  S
Cd123       O130   2.426       .  S
Cd123       O129   2.417       .  S
Cd123       O128   2.424       .  S
Cd123       O124   2.477       .  S
Cd123       O127   2.508       .  S
Cd123       O125   2.412       .  S
C126        O130   1.265       .  A
C126        C598   1.484       .  S
O131        C134   1.271       .  A
O131       Cd136   2.476       .  S
C132        O141   1.266   1_655  A
C132        O137   1.271       .  A
C132        C444   1.476       .  S
O133        C139   1.273       .  A
O133       Cd136   2.496       .  S
C134        O142   1.266       .  A
C134        C455   1.477       .  S
C135        O140   1.272       .  A
C135        O138   1.265       .  A
C135        C906   1.482       .  S
Cd136       O143   2.411       .  S
Cd136       O142   2.416       .  S
Cd136       O141   2.406       .  S
Cd136       O137   2.479   1_455  S
Cd136       O140   2.505       .  S
Cd136       O138   2.407       .  S
C139        O143   1.266       .  A
C139        C488   1.482       .  S
O144        C147   1.272       .  A
O144       Cd149   2.483       .  S
C145        O154   1.267   1_455  A
C145        O150   1.271       .  A
C145        C466   1.476       .  S
O146        C152   1.274   1_655  A
O146       Cd149   2.511   1_655  S
C147        O155   1.267       .  A
C147        C411   1.477       .  S
C148        O153   1.273       .  A
C148        O151   1.266   1_655  A
C148        C609   1.486       .  S
Cd149       O156   2.410       .  S
Cd149       O155   2.401       .  S
Cd149       O154   2.417   1_455  S
Cd149       O150   2.470       .  S
Cd149       O153   2.506   1_455  S
Cd149       O151   2.428       .  S
C152        O156   1.265       .  A
C152        C477   1.484       .  S
O157        C160   1.271       .  A
O157       Cd162   2.476       .  S
C158        O167   1.265       .  A
C158        O163   1.272       .  A
C158        C378   1.480       .  S
O159        C165   1.271       .  A
O159       Cd162   2.477       .  S
C160        O168   1.266       .  A
C160        C433   1.477       .  S
C161        O166   1.272       .  A
C161        O164   1.265       .  A
C161        C400   1.476       .  S
Cd162       O169   2.418       .  S
Cd162       O168   2.421       .  S
Cd162       O167   2.411       .  S
Cd162       O163   2.494       .  S
Cd162       O166   2.492       .  S
Cd162       O164   2.393       .  S
C165        O169   1.266       .  A
C165        C928   1.477       .  S
O170        C173   1.272       .  A
O170       Cd175   2.484       .  S
C171        O180   1.265       .  A
C171        O176   1.271       .  A
C171        C356   1.476   1_556  S
O172        C178   1.271       .  A
O172       Cd175   2.497       .  S
C173        O181   1.266       .  A
C173        C389   1.476       .  S
C174        O179   1.272   1_554  A
C174        O177   1.266   1_554  A
C174        C367   1.479       .  S
Cd175       O182   2.427       .  S
Cd175       O181   2.395       .  S
Cd175       O180   2.402       .  S
Cd175       O176   2.488       .  S
Cd175       O179   2.488       .  S
Cd175       O177   2.421       .  S
C178        O182   1.266       .  A
C178        C576   1.482       .  S
O183        C186   1.272       .  A
O183       Cd188   2.475       .  S
C184        O193   1.267   1_565  A
C184        O189   1.272       .  A
C184        C279   1.478       .  S
O185        C191   1.274       .  A
O185       Cd188   2.508       .  S
C186        O194   1.266       .  A
C186        C323   1.477       .  S
C187        O192   1.274       .  A
C187        O190   1.266       .  A
C187        C785   1.484       .  S
Cd188       O195   2.401       .  S
Cd188       O194   2.417       .  S
Cd188       O193   2.414       .  S
Cd188       O189   2.479   1_545  S
Cd188       O192   2.508       .  S
Cd188       O190   2.412       .  S
C191        O195   1.264       .  A
C191        C312   1.482       .  S
O196        C199   1.271       .  A
O196       Cd201   2.479       .  S
C197        O206   1.267   1_545  A
C197        O202   1.271       .  A
C197        C334   1.477       .  S
O198        C204   1.274   1_565  A
O198       Cd201   2.514   1_565  S
C199        O207   1.266       .  A
C199        C345   1.476       .  S
C200        O205   1.272       .  A
C200        O203   1.266       .  A
C200        C510   1.484       .  S
Cd201       O208   2.401       .  S
Cd201       O207   2.408       .  S
Cd201       O206   2.423   1_545  S
Cd201       O202   2.463       .  S
Cd201       O205   2.500   1_545  S
Cd201       O203   2.433   1_545  S
C204        O208   1.264       .  A
C204        C301   1.482       .  S
O209        C212   1.271       .  A
O209       Cd214   2.476       .  S
C210        O219   1.266       .  A
C210        O215   1.270       .  A
C210        C422   1.477       .  S
O211        C217   1.271       .  A
O211       Cd214   2.492       .  S
C212        O220   1.265       .  A
C212        C268   1.475       .  S
C213        O218   1.272       .  A
C213        O216   1.265       .  A
C213        C235   1.475       .  S
Cd214       O221   2.416       .  S
Cd214       O220   2.405       .  S
Cd214       O219   2.423       .  S
Cd214       O215   2.475       .  S
Cd214       O218   2.480       .  S
Cd214       O216   2.404       .  S
C217        O221   1.266       .  A
C217        C686   1.478       .  S
O222        C225   1.271       .  A
O222       Cd227   2.474       .  S
C223        O232   1.266       .  A
C223        O228   1.270       .  A
C223        C290   1.477       .  S
O224        C230   1.272       .  A
O224       Cd227   2.494       .  S
C225        O233   1.265       .  A
C225        C246   1.473       .  S
C226        O231   1.271       .  A
C226        O229   1.265       .  A
C226        C818   1.482       .  S
Cd227       O234   2.405       .  S
Cd227       O233   2.392       .  S
Cd227       O232   2.416       .  S
Cd227       O228   2.484       .  S
Cd227       O231   2.495       .  S
Cd227       O229   2.427       .  S
C230        O234   1.265       .  A
C230        C257   1.478   1_554  S
C235        C236   1.405       .  A
C235        C240   1.407       .  A
C236        C237   1.400       .  A
C236        H249   1.083       .  S
C237        C238   1.401       .  A
C237        H250   1.084       .  S
C238        C239   1.396       .  A
C238        C241   1.434       .  S
C239        C240   1.394       .  A
C239        H251   1.084       .  S
C240        H252   1.083       .  S
C241        C242   1.203       .  T
C242        C243   1.434       .  S
C243        C244   1.401       .  A
C243        C248   1.396       .  A
C244        C245   1.400       .  A
C244        H253   1.083       .  S
C245        C246   1.405       .  A
C245        H254   1.083       .  S
C246        C247   1.406       .  A
C247        C248   1.392       .  A
C247        H255   1.083       .  S
C248        H256   1.084       .  S
C257        C258   1.406       .  A
C257        C262   1.408       .  A
C258        C259   1.402       .  A
C258        H271   1.083       .  S
C259        C260   1.402       .  A
C259        H272   1.083       .  S
C260        C261   1.396       .  A
C260        C263   1.437       .  S
C261        C262   1.394       .  A
C261        H273   1.084       .  S
C262        H274   1.083       .  S
C263        C264   1.204       .  T
C264        C265   1.437       .  S
C265        C266   1.397       .  A
C265        C270   1.402       .  A
C266        C267   1.394       .  A
C266        H275   1.084       .  S
C267        C268   1.407       .  A
C267        H276   1.083       .  S
C268        C269   1.406       .  A
C269        C270   1.401       .  A
C269        H277   1.083       .  S
C270        H278   1.083       .  S
C279        C280   1.407       .  A
C279        C284   1.406       .  A
C280        C281   1.402       .  A
C280        H293   1.083       .  S
C281        C282   1.402       .  A
C281        H294   1.084       .  S
C282        C283   1.398       .  A
C282        C285   1.439       .  S
C283        C284   1.394       .  A
C283        H295   1.083       .  S
C284        H296   1.083   1_565  S
C285        C286   1.205       .  T
C286        C287   1.438       .  S
C287        C288   1.402   1_556  A
C287        C292   1.397       .  A
C288        C289   1.403       .  A
C288        H297   1.083       .  S
C289        C290   1.407       .  A
C289        H298   1.083       .  S
C290        C291   1.405   1_554  A
C291        C292   1.393       .  A
C291        H299   1.083       .  S
C292        H300   1.084       .  S
C301        C302   1.408       .  A
C301        C306   1.406   1_545  A
C302        C303   1.394       .  A
C302        H315   1.083       .  S
C303        C304   1.396       .  A
C303        H316   1.084       .  S
C304        C305   1.404   1_545  A
C304        C307   1.442       .  S
C305        C306   1.405       .  A
C305        H317   1.083       .  S
C306        H318   1.083       .  S
C307        C308   1.208   1_554  T
C308        C309   1.443       .  S
C309        C310   1.397       .  A
C309        C314   1.404       .  A
C310        C311   1.395       .  A
C310        H319   1.084   1_545  S
C311        C312   1.409       .  A
C311        H320   1.083   1_545  S
C312        C313   1.406       .  A
C313        C314   1.404       .  A
C313        H321   1.083       .  S
C314        H322   1.083       .  S
C323        C324   1.405       .  A
C323        C328   1.407       .  A
C324        C325   1.400       .  A
C324        H337   1.083   1_545  S
C325        C326   1.401       .  A
C325        H338   1.083   1_545  S
C326        C327   1.398       .  A
C326        C329   1.437       .  S
C327        C328   1.396       .  A
C327        H339   1.084       .  S
C328        H340   1.083       .  S
C329        C330   1.205       .  T
C330        C331   1.437       .  S
C331        C332   1.401       .  A
C331        C336   1.398   1_545  A
C332        C333   1.400       .  A
C332        H341   1.083       .  S
C333        C334   1.406       .  A
C333        H342   1.083       .  S
C334        C335   1.407   1_545  A
C335        C336   1.395       .  A
C335        H343   1.083       .  S
C336        H344   1.084       .  S
C345        C346   1.406       .  A
C345        C350   1.406       .  A
C346        C347   1.393       .  A
C346        H359   1.083       .  S
C347        C348   1.397       .  A
C347        H360   1.084       .  S
C348        C349   1.401       .  A
C348        C351   1.436       .  S
C349        C350   1.401       .  A
C349        H361   1.083       .  S
C350        H362   1.083       .  S
C351        C352   1.204       .  T
C352        C353   1.436       .  S
C353        C354   1.402       .  A
C353        C358   1.397       .  A
C354        C355   1.402   1_554  A
C354        H363   1.083   1_554  S
C355        C356   1.406   1_556  A
C355        H364   1.083       .  S
C356        C357   1.407       .  A
C357        C358   1.393       .  A
C357        H365   1.083       .  S
C358        H366   1.084       .  S
C367        C368   1.406       .  A
C367        C372   1.407       .  A
C368        C369   1.402       .  A
C368        H381   1.083       .  S
C369        C370   1.402       .  A
C369        H382   1.083       .  S
C370        C371   1.398       .  A
C370        C373   1.441       .  S
C371        C372   1.397       .  A
C371        H383   1.084       .  S
C372        H384   1.083       .  S
C373        C374   1.207       .  T
C374        C375   1.441       .  S
C375        C376   1.403       .  A
C375        C380   1.397       .  A
C376        C377   1.403       .  A
C376        H385   1.083       .  S
C377        C378   1.406       .  A
C377        H386   1.083       .  S
C378        C379   1.407       .  A
C379        C380   1.395       .  A
C379        H387   1.083       .  S
C380        H388   1.084       .  S
C389        C390   1.407       .  A
C389        C394   1.406       .  A
C390        C391   1.392       .  A
C390        H403   1.083       .  S
C391        C392   1.395       .  A
C391        H404   1.084       .  S
C392        C393   1.402       .  A
C392        C395   1.435       .  S
C393        C394   1.402       .  A
C393        H405   1.083       .  S
C394        H406   1.083       .  S
C395        C396   1.203       .  T
C396        C397   1.435       .  S
C397        C398   1.395       .  A
C397        C402   1.403       .  A
C398        C399   1.392       .  A
C398        H407   1.084       .  S
C399        C400   1.407       .  A
C399        H408   1.083       .  S
C400        C401   1.406       .  A
C401        C402   1.402       .  A
C401        H409   1.083       .  S
C402        H410   1.083       .  S
C411        C412   1.406       .  A
C411        C416   1.407       .  A
C412        C413   1.392       .  A
C412        H425   1.083       .  S
C413        C414   1.397       .  A
C413        H426   1.084       .  S
C414        C415   1.402       .  A
C414        C417   1.437       .  S
C415        C416   1.403       .  A
C415        H427   1.083       .  S
C416        H428   1.083       .  S
C417        C418   1.205       .  T
C418        C419   1.438       .  S
C419        C420   1.401       .  A
C419        C424   1.398       .  A
C420        C421   1.401       .  A
C420        H429   1.083       .  S
C421        C422   1.407       .  A
C421        H430   1.083       .  S
C422        C423   1.406       .  A
C423        C424   1.394       .  A
C423        H431   1.083       .  S
C424        H432   1.084       .  S
C433        C434   1.406       .  A
C433        C438   1.407       .  A
C434        C435   1.401       .  A
C434        H447   1.083       .  S
C435        C436   1.401       .  A
C435        H448   1.084       .  S
C436        C437   1.398       .  A
C436        C439   1.437       .  S
C437        C438   1.395       .  A
C437        H449   1.083       .  S
C438        H450   1.083       .  S
C439        C440   1.204       .  T
C440        C441   1.437       .  S
C441        C442   1.401       .  A
C441        C446   1.397       .  A
C442        C443   1.401       .  A
C442        H451   1.083       .  S
C443        C444   1.406       .  A
C443        H452   1.083       .  S
C444        C445   1.406       .  A
C445        C446   1.393       .  A
C445        H453   1.083       .  S
C446        H454   1.084       .  S
C455        C456   1.407       .  A
C455        C460   1.405       .  A
C456        C457   1.395       .  A
C456        H469   1.083       .  S
C457        C458   1.397       .  A
C457        H470   1.084       .  S
C458        C459   1.401       .  A
C458        C461   1.437       .  S
C459        C460   1.400       .  A
C459        H471   1.083   1_455  S
C460        H472   1.083   1_455  S
C461        C462   1.204   1_556  T
C462        C463   1.437       .  S
C463        C464   1.397       .  A
C463        C468   1.401       .  A
C464        C465   1.395   1_455  A
C464        H473   1.084   1_455  S
C465        C466   1.407   1_655  A
C465        H474   1.083       .  S
C466        C467   1.406       .  A
C467        C468   1.400       .  A
C467        H475   1.083       .  S
C468        H476   1.083       .  S
C477        C478   1.406   1_455  A
C477        C482   1.409       .  A
C478        C479   1.405       .  A
C478        H491   1.083       .  S
C479        C480   1.404   1_655  A
C479        H492   1.083       .  S
C480        C481   1.397       .  A
C480        C483   1.444       .  S
C481        C482   1.396       .  A
C481        H493   1.084       .  S
C482        H494   1.083       .  S
C483        C484   1.208       .  T
C484        C485   1.443       .  S
C485        C486   1.403       .  A
C485        C490   1.397       .  A
C486        C487   1.403       .  A
C486        H495   1.083       .  S
C487        C488   1.406       .  A
C487        H496   1.083       .  S
C488        C489   1.408       .  A
C489        C490   1.396       .  A
C489        H497   1.083   1_455  S
C490        H498   1.084   1_455  S
C499        C500   1.408       .  A
C499        C504   1.407       .  A
C500        C501   1.406       .  A
C500        H513   1.083       .  S
C501        C502   1.404       .  A
C501        H514   1.083       .  S
C502        C503   1.397       .  A
C502        C505   1.444       .  S
C503        C504   1.395       .  A
C503        H515   1.084       .  S
C504        H516   1.083       .  S
C505        C506   1.209       .  T
C506        C507   1.445       .  S
C507        C508   1.399       .  A
C507        C512   1.402       .  A
C508        C509   1.398       .  A
C508        H517   1.084       .  S
C509        C510   1.408       .  A
C509        H518   1.083       .  S
C510        C511   1.407       .  A
C511        C512   1.404       .  A
C511        H519   1.083       .  S
C512        H520   1.083       .  S
C521        C522   1.407       .  A
C521        C526   1.406       .  A
C522        C523   1.395       .  A
C522        H535   1.083       .  S
C523        C524   1.397       .  A
C523        H536   1.084       .  S
C524        C525   1.402       .  A
C524        C527   1.439       .  S
C525        C526   1.401       .  A
C525        H537   1.083       .  S
C526        H538   1.083       .  S
C527        C528   1.206       .  T
C528        C529   1.439       .  S
C529        C530   1.398       .  A
C529        C534   1.401       .  A
C530        C531   1.396       .  A
C530        H539   1.084       .  S
C531        C532   1.407       .  A
C531        H540   1.083       .  S
C532        C533   1.406       .  A
C533        C534   1.400       .  A
C533        H541   1.083       .  S
C534        H542   1.083       .  S
C543        C544   1.405       .  A
C543        C548   1.408       .  A
C544        C545   1.403       .  A
C544        H557   1.083       .  S
C545        C546   1.403       .  A
C545        H558   1.083       .  S
C546        C547   1.397       .  A
C546        C549   1.442       .  S
C547        C548   1.396       .  A
C547        H559   1.084       .  S
C548        H560   1.083       .  S
C549        C550   1.208       .  T
C550        C551   1.442       .  S
C551        C552   1.404       .  A
C551        C556   1.397       .  A
C552        C553   1.405       .  A
C552        H561   1.083       .  S
C553        C554   1.407       .  A
C553        H562   1.083       .  S
C554        C555   1.408       .  A
C555        C556   1.395       .  A
C555        H563   1.083       .  S
C556        H564   1.084       .  S
C565        C566   1.407       .  A
C565        C570   1.407       .  A
C566        C567   1.395       .  A
C566        H579   1.083       .  S
C567        C568   1.398       .  A
C567        H580   1.084       .  S
C568        C569   1.403       .  A
C568        C571   1.442   1_565  S
C569        C570   1.404       .  A
C569        H581   1.083       .  S
C570        H582   1.083       .  S
C571        C572   1.208       .  T
C572        C573   1.442       .  S
C573        C574   1.403       .  A
C573        C578   1.398       .  A
C574        C575   1.404       .  A
C574        H583   1.083       .  S
C575        C576   1.407       .  A
C575        H584   1.083       .  S
C576        C577   1.407       .  A
C577        C578   1.395       .  A
C577        H585   1.083       .  S
C578        H586   1.084       .  S
C587        C588   1.408       .  A
C587        C592   1.407       .  A
C588        C589   1.396       .  A
C588        H601   1.083       .  S
C589        C590   1.398       .  A
C589        H602   1.084       .  S
C590        C591   1.403       .  A
C590        C593   1.445       .  S
C591        C592   1.405       .  A
C591        H603   1.083       .  S
C592        H604   1.083       .  S
C593        C594   1.209       .  T
C594        C595   1.445       .  S
C595        C596   1.403       .  A
C595        C600   1.398       .  A
C596        C597   1.404       .  A
C596        H605   1.083       .  S
C597        C598   1.407       .  A
C597        H606   1.083       .  S
C598        C599   1.408       .  A
C599        C600   1.397       .  A
C599        H607   1.083       .  S
C600        H608   1.084       .  S
C609        C610   1.407       .  A
C609        C614   1.408       .  A
C610        C611   1.404       .  A
C610        H623   1.083       .  S
C611        C612   1.403       .  A
C611        H624   1.083       .  S
C612        C613   1.399       .  A
C612        C615   1.445       .  S
C613        C614   1.398       .  A
C613        H625   1.084       .  S
C614        H626   1.083       .  S
C615        C616   1.209       .  T
C616        C617   1.445       .  S
C617        C618   1.398       .  A
C617        C622   1.403   1_554  A
C618        C619   1.396       .  A
C618        H627   1.084       .  S
C619        C620   1.407   1_554  A
C619        H628   1.083       .  S
C620        C621   1.408       .  A
C621        C622   1.405       .  A
C621        H629   1.083       .  S
C622        H630   1.083       .  S
C631        C632   1.407       .  A
C631        C636   1.406       .  A
C632        C633   1.395       .  A
C632        H645   1.083       .  S
C633        C634   1.397       .  A
C633        H646   1.083       .  S
C634        C635   1.401       .  A
C634        C637   1.438       .  S
C635        C636   1.401       .  A
C635        H647   1.084       .  S
C636        H648   1.083       .  S
C637        C638   1.205       .  T
C638        C639   1.438       .  S
C639        C640   1.397       .  A
C639        C644   1.402       .  A
C640        C641   1.395       .  A
C640        H649   1.084       .  S
C641        C642   1.407       .  A
C641        H650   1.083       .  S
C642        C643   1.406       .  A
C643        C644   1.401       .  A
C643        H651   1.083       .  S
C644        H652   1.084       .  S
C653        C654   1.408       .  A
C653        C658   1.406       .  A
C654        C655   1.394       .  A
C654        H667   1.083       .  S
C655        C656   1.396       .  A
C655        H668   1.084       .  S
C656        C657   1.403       .  A
C656        C659   1.440       .  S
C657        C658   1.403       .  A
C657        H669   1.083       .  S
C658        H670   1.083       .  S
C659        C660   1.206       .  T
C660        C661   1.440       .  S
C661        C662   1.403       .  A
C661        C666   1.397       .  A
C662        C663   1.403       .  A
C662        H671   1.083       .  S
C663        C664   1.406       .  A
C663        H672   1.083       .  S
C664        C665   1.408       .  A
C665        C666   1.395       .  A
C665        H673   1.083       .  S
C666        H674   1.084       .  S
C675        C676   1.407       .  A
C675        C680   1.406       .  A
C676        C677   1.403       .  A
C676        H689   1.083       .  S
C677        C678   1.402       .  A
C677        H690   1.083       .  S
C678        C679   1.397       .  A
C678        C681   1.439   1_655  S
C679        C680   1.393       .  A
C679        H691   1.083       .  S
C680        H692   1.083       .  S
C681        C682   1.206       .  T
C682        C683   1.439       .  S
C683        C684   1.402       .  A
C683        C688   1.397       .  A
C684        C685   1.403       .  A
C684        H693   1.083       .  S
C685        C686   1.407       .  A
C685        H694   1.083       .  S
C686        C687   1.406       .  A
C687        C688   1.394       .  A
C687        H695   1.083       .  S
C688        H696   1.084       .  S
C697        C698   1.406   1_554  A
C697        C702   1.406       .  A
C698        C699   1.394       .  A
C698        H711   1.083       .  S
C699        C700   1.397       .  A
C699        H712   1.083       .  S
C700        C701   1.403   1_556  A
C700        C703   1.440       .  S
C701        C702   1.404       .  A
C701        H713   1.083       .  S
C702        H714   1.083       .  S
C703        C704   1.206       .  T
C704        C705   1.440       .  S
C705        C706   1.402       .  A
C705        C710   1.397       .  A
C706        C707   1.403       .  A
C706        H715   1.083       .  S
C707        C708   1.407       .  A
C707        H716   1.083       .  S
C708        C709   1.406       .  A
C709        C710   1.394       .  A
C709        H717   1.083       .  S
C710        H718   1.084       .  S
C719        C720   1.407       .  A
C719        C724   1.407       .  A
C720        C721   1.403       .  A
C720        H733   1.083       .  S
C721        C722   1.402       .  A
C721        H734   1.083       .  S
C722        C723   1.398       .  A
C722        C725   1.440       .  S
C723        C724   1.394       .  A
C723        H735   1.084       .  S
C724        H736   1.083       .  S
C725        C726   1.206       .  T
C726        C727   1.440       .  S
C727        C728   1.401       .  A
C727        C732   1.398       .  A
C728        C729   1.402       .  A
C728        H737   1.083       .  S
C729        C730   1.407       .  A
C729        H738   1.083       .  S
C730        C731   1.406       .  A
C731        C732   1.395       .  A
C731        H739   1.083       .  S
C732        H740   1.083       .  S
C741        C742   1.407       .  A
C741        C746   1.405       .  A
C742        C743   1.395       .  A
C742        H755   1.083       .  S
C743        C744   1.397       .  A
C743        H756   1.084       .  S
C744        C745   1.401       .  A
C744        C747   1.437       .  S
C745        C746   1.400       .  A
C745        H757   1.083       .  S
C746        H758   1.083       .  S
C747        C748   1.204   1_556  T
C748        C749   1.437       .  S
C749        C750   1.397       .  A
C749        C754   1.401       .  A
C750        C751   1.395       .  A
C750        H759   1.084       .  S
C751        C752   1.408       .  A
C751        H760   1.083       .  S
C752        C753   1.405       .  A
C753        C754   1.400       .  A
C753        H761   1.083       .  S
C754        H762   1.083       .  S
C763        C764   1.408       .  A
C763        C768   1.404       .  A
C764        C765   1.393       .  A
C764        H777   1.083       .  S
C765        C766   1.395       .  A
C765        H778   1.084       .  S
C766        C767   1.401       .  A
C766        C769   1.432       .  S
C767        C768   1.399       .  A
C767        H779   1.083       .  S
C768        H780   1.083       .  S
C769        C770   1.201       .  T
C770        C771   1.432       .  S
C771        C772   1.396       .  A
C771        C776   1.400       .  A
C772        C773   1.392       .  A
C772        H781   1.084       .  S
C773        C774   1.406       .  A
C773        H782   1.083       .  S
C774        C775   1.405       .  A
C775        C776   1.399       .  A
C775        H783   1.083       .  S
C776        H784   1.083       .  S
C785        C786   1.408       .  A
C785        C790   1.408       .  A
C786        C787   1.406       .  A
C786        H799   1.083       .  S
C787        C788   1.404       .  A
C787        H800   1.083       .  S
C788        C789   1.398       .  A
C788        C791   1.446       .  S
C789        C790   1.395       .  A
C789        H801   1.084       .  S
C790        H802   1.083       .  S
C791        C792   1.210       .  T
C792        C793   1.446       .  S
C793        C794   1.398       .  A
C793        C798   1.403       .  A
C794        C795   1.396       .  A
C794        H803   1.084       .  S
C795        C796   1.408       .  A
C795        H804   1.083       .  S
C796        C797   1.408       .  A
C797        C798   1.406       .  A
C797        H805   1.083       .  S
C798        H806   1.083       .  S
C807        C808   1.406       .  A
C807        C812   1.408       .  A
C808        C809   1.394       .  A
C808        H821   1.083       .  S
C809        C810   1.398       .  A
C809        H822   1.083       .  S
C810        C811   1.403       .  A
C810        C813   1.441       .  S
C811        C812   1.404       .  A
C811        H823   1.083       .  S
C812        H824   1.083       .  S
C813        C814   1.207       .  T
C814        C815   1.442   1_545  S
C815        C816   1.398       .  A
C815        C820   1.402       .  A
C816        C817   1.396       .  A
C816        H825   1.084       .  S
C817        C818   1.407       .  A
C817        H826   1.083       .  S
C818        C819   1.407       .  A
C819        C820   1.403       .  A
C819        H827   1.083       .  S
C820        H828   1.083       .  S
C829        C830   1.407       .  A
C829        C834   1.408       .  A
C830        C831   1.405       .  A
C830        H843   1.083       .  S
C831        C832   1.404       .  A
C831        H844   1.083       .  S
C832        C833   1.397       .  A
C832        C835   1.445       .  S
C833        C834   1.396       .  A
C833        H845   1.084       .  S
C834        H846   1.083       .  S
C835        C836   1.209       .  T
C836        C837   1.445       .  S
C837        C838   1.404       .  A
C837        C842   1.397       .  A
C838        C839   1.405       .  A
C838        H847   1.083       .  S
C839        C840   1.406       .  A
C839        H848   1.083       .  S
C840        C841   1.408       .  A
C841        C842   1.396       .  A
C841        H849   1.083       .  S
C842        H850   1.084       .  S
C851        C852   1.405       .  A
C851        C856   1.408       .  A
C852        C853   1.401       .  A
C852        H865   1.083       .  S
C853        C854   1.402       .  A
C853        H866   1.083       .  S
C854        C855   1.398       .  A
C854        C857   1.441       .  S
C855        C856   1.397       .  A
C855        H867   1.084       .  S
C856        H868   1.083       .  S
C857        C858   1.207       .  T
C858        C859   1.441       .  S
C859        C860   1.401       .  A
C859        C864   1.398       .  A
C860        C861   1.401       .  A
C860        H869   1.083       .  S
C861        C862   1.407       .  A
C861        H870   1.083       .  S
C862        C863   1.407       .  A
C863        C864   1.397       .  A
C863        H871   1.083       .  S
C864        H872   1.084       .  S
C873        C874   1.407       .  A
C873        C878   1.406       .  A
C874        C875   1.402       .  A
C874        H887   1.083       .  S
C875        C876   1.401       .  A
C875        H888   1.083       .  S
C876        C877   1.398       .  A
C876        C879   1.439       .  S
C877        C878   1.395       .  A
C877        H889   1.084       .  S
C878        H890   1.083       .  S
C879        C880   1.206       .  T
C880        C881   1.439       .  S
C881        C882   1.397       .  A
C881        C886   1.403       .  A
C882        C883   1.394       .  A
C882        H891   1.084       .  S
C883        C884   1.407       .  A
C883        H892   1.083       .  S
C884        C885   1.406   1_554  A
C885        C886   1.403   1_556  A
C885        H893   1.083       .  S
C886        H894   1.083   1_554  S
C895        C896   1.407   1_554  A
C895        C900   1.407       .  A
C896        C897   1.396       .  A
C896        H909   1.083       .  S
C897        C898   1.398       .  A
C897        H910   1.084       .  S
C898        C899   1.402       .  A
C898        C901   1.443       .  S
C899        C900   1.404   1_556  A
C899        H911   1.083       .  S
C900        H912   1.083       .  S
C901        C902   1.208       .  T
C902        C903   1.442       .  S
C903        C904   1.403       .  A
C903        C908   1.397       .  A
C904        C905   1.405       .  A
C904        H913   1.083       .  S
C905        C906   1.407       .  A
C905        H914   1.083       .  S
C906        C907   1.407       .  A
C907        C908   1.393       .  A
C907        H915   1.083       .  S
C908        H916   1.084       .  S
C917        C918   1.406       .  A
C917        C922   1.407       .  A
C918        C919   1.402       .  A
C918        H931   1.083       .  S
C919        C920   1.401       .  A
C919        H932   1.083       .  S
C920        C921   1.398       .  A
C920        C923   1.439       .  S
C921        C922   1.395       .  A
C921        H933   1.084       .  S
C922        H934   1.083       .  S
C923        C924   1.205       .  T
C924        C925   1.439   1_455  S
C925        C926   1.398       .  A
C925        C930   1.401       .  A
C926        C927   1.394       .  A
C926        H935   1.084       .  S
C927        C928   1.406       .  A
C927        H936   1.083       .  S
C928        C929   1.406       .  A
C929        C930   1.402       .  A
C929        H937   1.083       .  S
C930        H938   1.083       .  S
C939        C940   1.406       .  A
C939        C944   1.407       .  A
C940        C941   1.395       .  A
C940        H953   1.083       .  S
C941        C942   1.398       .  A
C941        H954   1.083       .  S
C942        C943   1.402       .  A
C942        C945   1.442       .  S
C943        C944   1.404       .  A
C943        H955   1.083       .  S
C944        H956   1.083       .  S
C945        C946   1.207       .  T
C946        C947   1.442       .  S
C947        C948   1.398       .  A
C947        C952   1.403       .  A
C948        C949   1.395       .  A
C948        H957   1.084       .  S
C949        C950   1.407       .  A
C949        H958   1.083       .  S
C950        C951   1.406       .  A
C951        C952   1.404       .  A
C951        H959   1.083       .  S
C952        H960   1.083       .  S
C961        C962   1.407       .  A
C961        C966   1.408       .  A
C962        C963   1.405       .  A
C962        H975   1.083       .  S
C963        C964   1.403       .  A
C963        H976   1.083       .  S
C964        C965   1.399       .  A
C964        C967   1.446       .  S
C965        C966   1.397       .  A
C965        H977   1.084       .  S
C966        H978   1.083       .  S
C967        C968   1.210       .  T
C968        C969   1.446       .  S
C969        C970   1.404       .  A
C969        C974   1.398       .  A
C970        C971   1.406       .  A
C970        H979   1.083       .  S
C971        C972   1.408       .  A
C971        H980   1.083       .  S
C972        C973   1.408       .  A
C973        C974   1.396       .  A
C973        H981   1.083       .  S
C974        H982   1.084       .  S
C983        C984   1.405       .  A
C983        C988   1.408       .  A
C984        C985   1.403       .  A
C984        H997   1.083       .  S
C985        C986   1.403       .  A
C985        H998   1.083       .  S
C986        C987   1.396       .  A
C986        C989   1.440       .  S
C987        C988   1.394       .  A
C987        H999   1.084       .  S
C988       H1000   1.083       .  S
C989        C990   1.206       .  T
C990        C991   1.440       .  S
C991        C992   1.403       .  A
C991        C996   1.396       .  A
C992        C993   1.404       .  A
C992       H1001   1.083       .  S
C993        C994   1.406       .  A
C993       H1002   1.083       .  S
C994        C995   1.408       .  A
C995        C996   1.394       .  A
C995       H1003   1.083       .  S
C996       H1004   1.084       .  S
C1005      C1006   1.406       .  A
C1005      C1010   1.408       .  A
C1006      C1007   1.401       .  A
C1006      H1019   1.083       .  S
C1007      C1008   1.402       .  A
C1007      H1020   1.083       .  S
C1008      C1009   1.398       .  A
C1008      C1011   1.441       .  S
C1009      C1010   1.397       .  A
C1009      H1021   1.084       .  S
C1010      H1022   1.083       .  S
C1011      C1012   1.207       .  T
C1012      C1013   1.441       .  S
C1013      C1014   1.402       .  A
C1013      C1018   1.398       .  A
C1014      C1015   1.402       .  A
C1014      H1023   1.083       .  S
C1015      C1016   1.406       .  A
C1015      H1024   1.083       .  S
C1016      C1017   1.408       .  A
C1017      C1018   1.396       .  A
C1017      H1025   1.083       .  S
C1018      H1026   1.084       .  S
