geometry optimzed in LAMMPS
_audit_creation_date              2020-12-01 
_audit_creation_method            'lammps2cif' 
_symmetry_space_group_name_H-M    'P1' 
_symmetry_Int_Tables_number       1 
_symmetry_cell_setting            triclinic 
loop_ 
_symmetry_equiv_pos_as_xyz 
  x,y,z 
_cell_length_a                    28.60280908 
_cell_length_b                    28.585894338286412 
_cell_length_c                    28.59806178933067 
_cell_angle_alpha                 90.46118094049935 
_cell_angle_beta                  89.96408565095675 
_cell_angle_gamma                 90.127211937072 
loop_ 
_atom_site_label 
_atom_site_type_symbol 
_atom_site_fract_x 
_atom_site_fract_y 
_atom_site_fract_z 
_atom_site_charge 
C1          C  0.68654380  0.36820196  0.31680125     0.81800
N2          N  0.70039332  0.35338767  0.35934385    -0.76500
C3          C  0.67247948  0.32496848  0.38469209     0.84300
N4          N  0.63142534  0.30984505  0.36653514    -0.76400
C5          C  0.61728990  0.32485905  0.32410669     0.84400
N6          N  0.64545273  0.35309865  0.29877061    -0.78100
C7          C  0.67267753  0.67160053  0.31377167     0.81800
N8          N  0.68902192  0.68631863  0.35578822    -0.76500
C9          C  0.67441359  0.72743700  0.37427309     0.84300
N10         N  0.64483248  0.75469066  0.34978677    -0.76400
C11         C  0.62868383  0.74042248  0.30765762     0.84400
N12         N  0.64350732  0.69934291  0.28909021    -0.78100
C13         C  0.32480087  0.74240947  0.31867235     0.81800
N14         N  0.30285504  0.76748302  0.35246740    -0.76500
C15         C  0.26656855  0.74855831  0.37612537     0.84300
N16         N  0.25090566  0.70537889  0.36443123    -0.76400
C17         C  0.27253530  0.68028190  0.33052389     0.84400
N18         N  0.30886665  0.69929464  0.30700308    -0.78100
C19         C  0.32654103  0.74788782  0.73441782     0.81800
N20         N  0.30370198  0.71640692  0.76106989    -0.76500
C21         C  0.26083569  0.70102367  0.74853862     0.84300
N22         N  0.24001434  0.71828965  0.70999882    -0.76400
C23         C  0.26273364  0.74962522  0.68301357     0.84400
N24         N  0.30548896  0.76544180  0.69598668    -0.78100
C25         C  0.67440109  0.31473444  0.69404525     0.81800
N26         N  0.63227082  0.31025746  0.71484825    -0.76500
C27         C  0.61938342  0.34007233  0.74943670     0.84300
N28         N  0.64966502  0.37338570  0.76448098    -0.76400
C29         C  0.69174480  0.37829774  0.74332512     0.84400
N30         N  0.70450169  0.34819112  0.70895138    -0.78100
C31         C  0.67972716  0.72611401  0.68394942     0.81800
N32         N  0.64487891  0.75285475  0.70159558    -0.76500
C33         C  0.62868296  0.74542515  0.74530397     0.84300
N34         N  0.64865861  0.71228932  0.77216969    -0.76400
C35         C  0.68341525  0.68532357  0.75468537     0.84400
N36         N  0.69972170  0.69307295  0.71098239    -0.78100
C37         C  0.30824627  0.32461882  0.73388732     0.81800
N38         N  0.28402621  0.30080644  0.70079086    -0.76500
C39         C  0.24608654  0.32034576  0.68067810     0.84300
N40         N  0.23096105  0.36277715  0.69540010    -0.76400
C41         C  0.25522061  0.38672259  0.72841524     0.84400
N42         N  0.29323522  0.36712784  0.74825921    -0.78100
C43         C  0.30905548  0.30881966  0.33589522     0.81800
N44         N  0.28158210  0.29247756  0.37068087    -0.76500
C45         C  0.24677289  0.31938276  0.38830360     0.84300
N46         N  0.23797654  0.36166557  0.36935780    -0.76400
C47         C  0.26529821  0.37810165  0.33448091     0.84400
N48         N  0.30024762  0.35123285  0.31734839    -0.78100
O49         O  0.02022518  0.09861771  0.53038212    -0.53800
O50         O  0.83824729  0.18470921  0.49885917    -0.61700
C51         C  0.80346058  0.16662400  0.47823199     0.99100
O52         O  0.17656507  0.99781931  0.51916750    -0.66900
O53         O  0.09081226  0.03070401  0.57454252    -0.64800
C54         C  0.71518089  0.01036683  0.51739141     0.91200
O55         O  0.90410306  0.24029147  0.55371590    -0.67000
C56         C  0.80354702  0.15115021  0.60712273     0.98800
C57         C  0.94139793  0.26515044  0.55140765     0.91700
Ti58       Ti  0.89238739  0.16539973  0.54475404     1.51200
Ti59       Ti  0.01765470  0.88141998  0.52900956     1.51300
O60         O  0.94994185  0.15181637  0.59057198    -0.60900
O61         O  0.82665950  0.02225294  0.47546090    -0.64900
C62         C  0.10955804  0.88970170  0.58892317     0.99200
O63         O  0.89067937  0.95312107  0.52681895    -0.53900
C64         C  0.82378168  0.87408851  0.46165594     0.98900
Ti65       Ti  0.80717111  0.07099671  0.52957835     1.51000
Ti66       Ti  0.00061636  0.17214073  0.53878286     1.53000
Ti67       Ti  0.09531181  0.08652553  0.52439682     1.49300
O68         O  0.79768850  0.90617588  0.56392896    -0.60600
O69         O  0.74053258  0.97365168  0.51327164    -0.66900
O70         O  0.98150416  0.24592076  0.54596075    -0.67000
O71         O  0.88048864  0.09080692  0.53548329    -0.53800
O72         O  0.08412419  0.03178036  0.47323138    -0.64800
O73         O  0.06818708  0.86615002  0.47647589    -0.61700
O74         O  0.94420461  0.16326988  0.48969538    -0.60900
O75         O  0.86220391  0.87054520  0.58955003    -0.62200
O76         O  0.00373865  0.80560394  0.53334651    -0.66400
O77         O  0.84395793  0.16879238  0.60094199    -0.61700
O78         O  0.02991823  0.95655503  0.52519909    -0.53800
C79         C  0.96439479  0.78433974  0.53853474     0.91700
O80         O  0.81790491  0.01343939  0.57652296    -0.64800
O81         O  0.05165427  0.18507043  0.59057774    -0.62300
O82         O  0.07002510  0.87138798  0.58027820    -0.61700
C83         C  0.09315197  0.17127849  0.59705405     0.99000
C84         C  0.81827229  0.87513415  0.58764442     0.99000
C85         C  0.19541128  0.03853068  0.51824244     0.91000
O86         O  0.12442069  0.92773225  0.57188291    -0.61000
O87         O  0.79189030  0.12387696  0.48039450    -0.61000
C88         C  0.10359075  0.88655677  0.45881188     0.98700
Ti89       Ti  0.10281632  0.97751973  0.52205395     1.51000
O90         O  0.85667175  0.85732579  0.48598884    -0.62300
O91         O  0.78656247  0.11680340  0.58432599    -0.61000
O92         O  0.10281088  0.13918038  0.47290241    -0.60600
O93         O  0.92601895  0.80697514  0.54027407    -0.67100
O94         O  0.04853398  0.19476893  0.48704878    -0.62200
O95         O  0.17028325  0.07557232  0.51870395    -0.66700
O96         O  0.81176144  0.91678694  0.46204423    -0.60500
Ti97       Ti  0.90922441  0.87986905  0.53351916     1.53200
O98         O  0.11197685  0.13672334  0.57650122    -0.60600
O99         O  0.96123540  0.88730839  0.47939970    -0.60900
O100        O  0.11701120  0.92800298  0.46835461    -0.61000
C101        C  0.08524989  0.17957397  0.46714856     0.99100
O102        O  0.73366599  0.05076505  0.52414617    -0.67000
Ti103      Ti  0.81543394  0.96323010  0.51990061     1.49500
O104        O  0.96511973  0.89617508  0.58084387    -0.60900
O105        O  0.47393937  0.96583372  0.09588493    -0.53800
O106        O  0.49109986  0.14360432  0.19709955    -0.61700
C107        C  0.51495920  0.17743932  0.18166871     0.99100
O108        O  0.49580182  0.82598084  0.97766112    -0.66900
O109        O  0.43243277  0.90135158  0.01949570    -0.64800
C110        C  0.47220925  0.28024837  0.04040128     0.91200
O111        O  0.44094843  0.06982153  0.24364618    -0.67000
C112        C  0.38833976  0.17278919  0.16956046     0.98800
C113        C  0.44742656  0.03233453  0.26675279     0.91700
Ti114      Ti  0.45061582  0.08678370  0.17097354     1.51200
Ti115      Ti  0.46855774  0.99337101  0.88043554     1.51300
O116        O  0.41019242  0.02586726  0.15321340    -0.60900
O117        O  0.51636551  0.16951054  0.03478342    -0.64900
C118        C  0.41780426  0.89748321  0.87893111     0.99200
O119        O  0.46535842  0.11378376  0.96077898    -0.53900
C120        C  0.52501382  0.19253107  0.88936894     0.98900
Ti121      Ti  0.46464875  0.18052837  0.08790979     1.51000
Ti122      Ti  0.46660064  0.97919385  0.17058335     1.53000
Ti123      Ti  0.48208314  0.89283784  0.07564413     1.49300
O124        O  0.42118668  0.20840324  0.92721526    -0.60600
O125        O  0.47340207  0.26102317  0.99974810    -0.66900
O126        O  0.45864722  0.99384985  0.24600636    -0.67000
O127        O  0.46000609  0.10516511  0.09796688    -0.53800
O128        O  0.53301535  0.91467974  0.02440205    -0.64800
O129        O  0.52210166  0.94634220  0.85897575    -0.61700
O130        O  0.51005834  0.04059901  0.16606005    -0.60900
O131        O  0.40122563  0.14703373  0.88169211    -0.62200
O132        O  0.46073732  0.01128380  0.80645377    -0.67000
O133        O  0.39029735  0.12892116  0.17551984    -0.61700
O134        O  0.47644794  0.97517638  0.95432011    -0.53800
C135        C  0.45462894  0.05109595  0.78692603     0.91700
O136        O  0.41474245  0.17663203  0.03156506    -0.64800
O137        O  0.42101967  0.92164667  0.18042626    -0.62300
O138        O  0.41843357  0.94032528  0.86808420    -0.61700
C139        C  0.41337921  0.88212920  0.16141470     0.99000
C140        C  0.39849482  0.18975714  0.89373407     0.99000
C141        C  0.49440407  0.80054196  0.01433234     0.91000
O142        O  0.43997728  0.87994296  0.91280497    -0.61000
O143        O  0.51737654  0.18824377  0.13896318    -0.61000
C144        C  0.54562630  0.91290783  0.87614626     0.98700
Ti145      Ti  0.48644144  0.90055223  0.96673460     1.51000
O146        O  0.50345057  0.15951084  0.86843303    -0.62300
O147        O  0.41298607  0.19523880  0.14015169    -0.61000
O148        O  0.53343609  0.88239076  0.12836745    -0.60600
O149        O  0.45256182  0.08888712  0.81134772    -0.67100
O150        O  0.52390384  0.93505473  0.18727146    -0.62200
O151        O  0.48994192  0.81907213  0.05514241    -0.66700
O152        O  0.52464863  0.19912679  0.93321093    -0.60500
Ti153      Ti  0.45934292  0.10173708  0.88614380     1.53200
O154        O  0.43043687  0.86846909  0.12272606    -0.60600
O155        O  0.51596641  0.05180170  0.88900316    -0.60900
O156        O  0.54191423  0.89779739  0.91769643    -0.61000
C157        C  0.54317933  0.89936778  0.16855384     0.99100
O158        O  0.46914001  0.25558124  0.07752289    -0.67000
Ti159      Ti  0.46896321  0.18721906  0.97996838     1.49500
O160        O  0.41513605  0.04261310  0.89939091    -0.60900
O161        O  0.91306618  0.53353309  0.96710006    -0.53800
O162        O  0.83044977  0.45732191  0.13511801    -0.61700
C163        C  0.84638236  0.44530505  0.17484314     0.99100
O164        O  0.02375045  0.55196225  0.82189053    -0.66900
O165        O  0.97999828  0.59222007  0.91005912    -0.64800
C166        C  0.98491491  0.52657110  0.27894125     0.91200
O167        O  0.76597020  0.51246982  0.07501640    -0.67000
C168        C  0.83442627  0.57468452  0.18540197     0.98800
C169        C  0.74282737  0.51984346  0.03754160     0.91700
Ti170      Ti  0.83991523  0.51591743  0.09094244     1.51200
Ti171      Ti  0.12896036  0.53741516  0.98564654     1.51300
O172        O  0.84855223  0.57391028  0.04374933    -0.60900
O173        O  0.98756321  0.47341544  0.17171212    -0.64900
C174        C  0.12459388  0.61422221  0.90663261     0.99200
O175        O  0.05194134  0.52777007  0.10706411    -0.53900
C176        C  0.12657760  0.46308462  0.17870696     0.98900
Ti177      Ti  0.92900531  0.51947948  0.18328691     1.51000
Ti178      Ti  0.83871916  0.53020694  0.98289680     1.53000
Ti179      Ti  0.92975355  0.53814937  0.89299642     1.49300
O180        O  0.08190085  0.58762794  0.19256364    -0.60600
O181        O  0.02256641  0.53178664  0.25544918    -0.66900
O182        O  0.76373543  0.52780257  0.99869932    -0.67000
O183        O  0.91380319  0.51943330  0.10835270    -0.53800
O184        O  0.98732998  0.49097128  0.90200447    -0.64800
O185        O  0.14465522  0.49024128  0.93052334    -0.61700
O186        O  0.85329545  0.47322623  0.03006213    -0.60900
O187        O  0.14492116  0.56752176  0.15049025    -0.62200
O188        O  0.20384607  0.53499326  0.00203197    -0.67000
O189        O  0.81916653  0.55976372  0.14663789    -0.61700
O190        O  0.05415449  0.54022992  0.96999256    -0.53800
C191        C  0.22425605  0.52716754  0.04115768     0.91700
O192        O  0.97825109  0.57485325  0.17084788    -0.64800
O193        O  0.82341124  0.58797003  0.93973337    -0.62300
O194        O  0.14390352  0.59460770  0.94136633    -0.61700
C195        C  0.83803592  0.60113613  0.90001632     0.99000
C196        C  0.12536179  0.58898180  0.18412906     0.99000
C197        C  0.98621858  0.54732768  0.79801983     0.91000
O198        O  0.08542026  0.60281361  0.88883082    -0.61000
O199        O  0.88165661  0.46339219  0.19543488    -0.61000
C200        C  0.12820985  0.48269773  0.89012970     0.98700
Ti201      Ti  0.03799241  0.54635184  0.89600071     1.51000
O202        O  0.13509409  0.46493405  0.13532439    -0.62300
O203        O  0.87515174  0.56726549  0.20091538    -0.61000
O204        O  0.88411131  0.48301697  0.87449708    -0.60600
O205        O  0.20063406  0.52079587  0.07856202    -0.67100
O206        O  0.82427136  0.48440139  0.92567525    -0.62200
O207        O  0.94656795  0.54173112  0.81824050    -0.66700
O208        O  0.09332991  0.48465524  0.19871130    -0.60500
Ti209      Ti  0.12642623  0.52417612  0.09268882     1.53200
O210        O  0.87520964  0.58684793  0.88017842    -0.60600
O211        O  0.11430567  0.48098232  0.03246636    -0.60900
O212        O  0.09040310  0.49935277  0.87496454    -0.61000
C213        C  0.84386415  0.47057149  0.88816958     0.99100
O214        O  0.94543516  0.51996352  0.25843193    -0.67000
Ti215      Ti  0.03699603  0.52980538  0.18145476     1.49500
O216        O  0.11895998  0.58217684  0.04563178    -0.60900
N217        N  0.96201217  0.47209827  0.48822940    -0.35000
N218        N  0.97402375  0.57513606  0.48505316    -0.55600
N219        N  0.97726308  0.57828336  0.58907453    -0.35000
N220        N  0.96428390  0.47487146  0.59175140    -0.55600
C221        C  0.96208710  0.47834191  0.44099930     0.28600
C222        C  0.96275073  0.42523354  0.49692929     0.28600
C223        C  0.97918576  0.62502931  0.57984794     0.28600
C224        C  0.97153637  0.57259108  0.63609261     0.28600
C225        C  0.97020463  0.56662283  0.43823421     0.37200
C226        C  0.98062267  0.62199879  0.49111824     0.37200
C227        C  0.96359061  0.42747681  0.58562520     0.37200
C228        C  0.96553463  0.48389718  0.63860528     0.37200
C229        C  0.96201914  0.43466765  0.41947679    -0.20300
C230        C  0.96272973  0.40154945  0.45433902    -0.20300
C231        C  0.97568737  0.64925631  0.62193448    -0.20300
C232        C  0.97029849  0.61662359  0.65689805    -0.20300
C233        C  0.97406183  0.60861591  0.41457116    -0.21300
C234        C  0.98102838  0.64324371  0.44766626    -0.21300
C235        C  0.96463247  0.40637754  0.62907259    -0.21300
C236        C  0.96549546  0.44167848  0.66225123    -0.21300
C237        C  0.96318935  0.52183319  0.41610774    -0.16700
C238        C  0.96350200  0.40255532  0.54172216    -0.16700
C239        C  0.96700940  0.52916926  0.66106131    -0.16700
C240        C  0.98406120  0.64684506  0.53485569    -0.16700
H241        H  0.96232895  0.42722666  0.38231050     0.16200
H242        H  0.96310903  0.36406987  0.44872112     0.16200
H243        H  0.97625495  0.68675140  0.62722675     0.16200
H244        H  0.96569461  0.62485977  0.69357514     0.16200
H245        H  0.97204822  0.61404930  0.37724301     0.14500
H246        H  0.98488883  0.68015352  0.44042356     0.14500
H247        H  0.96502319  0.36930424  0.63635201     0.14500
H248        H  0.96683578  0.43662504  0.69968632     0.14500
H249        H  0.96122294  0.49846924  0.51308172     0.27800
H250        H  0.98044383  0.55168393  0.56460569     0.27800
N251        N  0.50758708  0.01903310  0.47564013    -0.35000
N252        N  0.50712941  0.02733535  0.57911858    -0.55600
N253        N  0.40344715  0.02696927  0.57864048    -0.35000
N254        N  0.40369866  0.02101718  0.47441627    -0.55600
C255        C  0.55426257  0.02571326  0.48335508     0.28600
C256        C  0.49993768  0.01973684  0.42856965     0.28600
C257        C  0.41132033  0.02343795  0.62564249     0.28600
C258        C  0.35683616  0.02032341  0.57057680     0.28600
C259        C  0.55420579  0.02856156  0.57194102     0.37200
C260        C  0.49977314  0.02811272  0.62619436     0.37200
C261        C  0.41133907  0.01625331  0.42750983     0.37200
C262        C  0.35659857  0.01939450  0.48170286     0.37200
C263        C  0.57637644  0.03032707  0.44044807    -0.20300
C264        C  0.54254608  0.02633870  0.40627423    -0.20300
C265        C  0.36885051  0.01552096  0.64764263    -0.20300
C266        C  0.33486627  0.01365120  0.61334789    -0.20300
C267        C  0.57669654  0.03014722  0.61489318    -0.21300
C268        C  0.54258838  0.02975057  0.64888594    -0.21300
C269        C  0.36860594  0.01173657  0.40502567    -0.21300
C270        C  0.33433487  0.01392896  0.43892234    -0.21300
C271        C  0.57788851  0.02851099  0.52767103    -0.16700
C272        C  0.45605848  0.01499576  0.40442423    -0.16700
C273        C  0.33300470  0.01940262  0.52614996    -0.16700
C274        C  0.45549088  0.02603824  0.64968981    -0.16700
H275        H  0.61316594  0.03649041  0.43413981     0.16200
H276        H  0.54870724  0.02901923  0.36904764     0.16200
H277        H  0.36286477  0.01092179  0.68469390     0.16200
H278        H  0.29803293  0.00742343  0.61940920     0.16200
H279        H  0.61397819  0.03110451  0.62127508     0.14500
H280        H  0.54877963  0.03044273  0.68621646     0.14500
H281        H  0.36245975  0.00666539  0.36802142     0.14500
H282        H  0.29716509  0.01060036  0.43267503     0.14500
H283        H  0.48243748  0.01344509  0.50094859     0.27800
H284        H  0.42837808  0.03385612  0.55343344     0.27800
N285        N  0.53513385  0.48695373  0.02275330    -0.35000
N286        N  0.53640990  0.59109208  0.02223240    -0.55600
N287        N  0.43274293  0.59148531  0.02318693    -0.35000
N288        N  0.43088982  0.48757295  0.02307793    -0.55600
C289        C  0.58201327  0.49433907  0.01745923     0.28600
C290        C  0.52651897  0.44019537  0.01790631     0.28600
C291        C  0.44099419  0.63829646  0.02859146     0.28600
C292        C  0.38560240  0.58405988  0.02431287     0.28600
C293        C  0.58336834  0.58321355  0.02037951     0.37200
C294        C  0.52967172  0.63828230  0.02500008     0.37200
C295        C  0.43779870  0.44051205  0.01998151     0.37200
C296        C  0.38400866  0.49537418  0.01986041     0.37200
C297        C  0.60334104  0.45133354  0.00998079    -0.20300
C298        C  0.56878764  0.41758502  0.01051725    -0.20300
C299        C  0.39819106  0.66077696  0.03281166    -0.20300
C300        C  0.36367985  0.62700325  0.02992705    -0.20300
C301        C  0.60645203  0.62595662  0.02181046    -0.21300
C302        C  0.57285940  0.66038529  0.02499615    -0.21300
C303        C  0.39485761  0.41840613  0.01501164    -0.21300
C304        C  0.36117843  0.45278212  0.01468951    -0.21300
C305        C  0.60640024  0.53850459  0.01781311    -0.16700
C306        C  0.48196513  0.41676651  0.01876877    -0.16700
C307        C  0.36115711  0.54009888  0.02045069    -0.16700
C308        C  0.48553431  0.66202795  0.02919431    -0.16700
H309        H  0.64002607  0.44464014  0.00375812     0.16200
H310        H  0.57429366  0.38048953  0.00510566     0.16200
H311        H  0.39217320  0.69791931  0.03716056     0.16200
H312        H  0.32648063  0.63350418  0.03216562     0.16200
H313        H  0.64381872  0.63192628  0.02132622     0.14500
H314        H  0.57976250  0.69754166  0.02739171     0.14500
H315        H  0.38835949  0.38129924  0.01083256     0.14500
H316        H  0.32407409  0.44681403  0.01037648     0.14500
H317        H  0.51037980  0.51236091  0.02942422     0.27800
H318        H  0.45777452  0.56602300  0.01820508     0.27800
C319        C  0.27695309  0.52423716  0.04495885    -0.14800
C320        C  0.30821102  0.54192856  0.01390188    -0.30000
H321        H  0.29079323  0.50815023  0.07632209     0.14200
H322        H  0.29498309  0.56110413  0.98409355     0.14800
C323        C  0.69000884  0.51807355  0.04093555    -0.14800
C324        C  0.65945198  0.53869124  0.01106536    -0.30000
H325        H  0.67552355  0.50081879  0.07141604     0.14200
H326        H  0.67353932  0.55906421  0.98240747     0.14800
C327        C  0.98936359  0.52937054  0.33162197    -0.14800
C328        C  0.95545730  0.51963210  0.36334723    -0.30000
H329        H  0.02341502  0.53955844  0.34517524     0.14200
H330        H  0.92189656  0.50688531  0.35084865     0.14800
C331        C  0.99061051  0.54904317  0.74523002    -0.14800
C332        C  0.95962038  0.53048242  0.71406198    -0.30000
H333        H  0.02271893  0.56387408  0.73139353     0.14200
H334        H  0.92924843  0.51226597  0.72773198     0.14800
C335        C  0.47341212  0.33289348  0.04610740    -0.14800
C336        C  0.48163876  0.36396800  0.01132118    -0.30000
H337        H  0.46726455  0.34680668  0.08103192     0.14200
H338        H  0.48944870  0.35084826  0.97645368     0.14800
C339        C  0.48524176  0.71479295  0.03899906    -0.14800
C340        C  0.49829211  0.74789639  0.00750488    -0.30000
H341        H  0.47033730  0.72643566  0.07201745     0.14200
H342        H  0.51009192  0.73574572  0.97340724     0.14800
C343        C  0.44084142  0.03592054  0.31924973    -0.14800
C344        C  0.45849271  0.00630113  0.35163589    -0.30000
H345        H  0.42299157  0.06697220  0.33213162     0.14200
H346        H  0.47966549  0.97716321  0.33944801     0.14800
C347        C  0.45638263  0.01973686  0.70268720    -0.14800
C348        C  0.44978000  0.05509133  0.73420254    -0.30000
H349        H  0.46607997  0.98548231  0.71556650     0.14200
H350        H  0.44185521  0.08953009  0.72055899     0.14800
C351        C  0.66267442  0.00456758  0.51376555    -0.14800
C352        C  0.63063460  0.03660410  0.52840764    -0.30000
H353        H  0.64977530  0.97132807  0.50029406     0.14200
H354        H  0.64315720  0.06865888  0.54479858     0.14800
C355        C  0.24808417  0.04453764  0.51608234    -0.14800
C356        C  0.28021019  0.01115987  0.52661914    -0.30000
H357        H  0.26108052  0.07904098  0.50705137     0.14200
H358        H  0.26787322  0.97721894  0.53819786     0.14800
C359        C  0.96042198  0.73183636  0.54368095    -0.14800
C360        C  0.99327996  0.69940839  0.53268648    -0.30000
H361        H  0.92669629  0.71882728  0.55541307     0.14200
H362        H  0.02618685  0.71107410  0.51779960     0.14800
C363        C  0.96986555  0.34942978  0.54166477    -0.14800
C364        C  0.93674166  0.31798754  0.55529081    -0.30000
H365        H  0.00193774  0.33602656  0.52631964     0.14200
H366        H  0.90351787  0.33159991  0.56771725     0.14800
C367        C  0.21015173  0.29678357  0.41307682    -0.16900
C368        C  0.17729905  0.27303195  0.42367587     0.07200
C369        C  0.14051857  0.24148181  0.43103641     0.09000
C370        C  0.11218346  0.21250148  0.44166576    -0.17700
C371        C  0.15969849  0.44114257  0.20819131    -0.16900
C372        C  0.18894647  0.43288655  0.23691723     0.07200
C373        C  0.22127681  0.42560011  0.27285283     0.09000
C374        C  0.24537308  0.41128499  0.30378933    -0.17700
C375        C  0.36237227  0.19934012  0.20270115    -0.16900
C376        C  0.35138529  0.22229788  0.23617069     0.07200
C377        C  0.34390592  0.25000893  0.27609978     0.09000
C378        C  0.33345423  0.27603494  0.30743268    -0.17700
C379        C  0.21415504  0.29044820  0.65702673    -0.16900
C380        C  0.18503037  0.26227552  0.64627523     0.07200
C381        C  0.15091205  0.22830697  0.63744399     0.09000
C382        C  0.12269819  0.20002814  0.62474557    -0.17700
C383        C  0.23122787  0.42112574  0.75491325    -0.16900
C384        C  0.20795227  0.43746912  0.78564242     0.07200
C385        C  0.18031891  0.44764561  0.82466193     0.09000
C386        C  0.15630443  0.45853490  0.85717810    -0.17700
C387        C  0.33703835  0.29888739  0.76474218    -0.16900
C388        C  0.35082855  0.27505453  0.79604048     0.07200
C389        C  0.36105616  0.24599293  0.83377899     0.09000
C390        C  0.37306298  0.22003867  0.86411385    -0.17700
C391        C  0.70679905  0.74552129  0.64730516    -0.16900
C392        C  0.73349673  0.77200057  0.62902505     0.07200
C393        C  0.76447385  0.80827154  0.61801843     0.09000
C394        C  0.78991196  0.84017251  0.60848667    -0.17700
C395        C  0.80740455  0.62916219  0.87315212    -0.16900
C396        C  0.77749245  0.64199123  0.84696824     0.07200
C397        C  0.74178532  0.65090008  0.81482466     0.09000
C398        C  0.71275369  0.66165138  0.78675640    -0.17700
C399        C  0.60421190  0.78232647  0.76798414    -0.16900
C400        C  0.59357373  0.81657142  0.78986599     0.07200
C401        C  0.58536533  0.85587887  0.81814142     0.09000
C402        C  0.57319273  0.88606300  0.84469479    -0.17700
C403        C  0.77252016  0.17559004  0.63711384    -0.16900
C404        C  0.74437649  0.20331737  0.65088679     0.07200
C405        C  0.71438199  0.24084934  0.65974161     0.09000
C406        C  0.69307663  0.27534274  0.67017614    -0.17700
C407        C  0.72740397  0.40355319  0.76716683    -0.16900
C408        C  0.75762246  0.41679306  0.79305169     0.07200
C409        C  0.79076319  0.42883611  0.82704200     0.09000
C410        C  0.81679390  0.44316252  0.85664824    -0.17700
C411        C  0.58455815  0.32398086  0.78078787    -0.16900
C412        C  0.56695909  0.29803464  0.80836038     0.07200
C413        C  0.55597309  0.26067726  0.83779968     0.09000
C414        C  0.54611912  0.22769029  0.86149804    -0.17700
C415        C  0.14193761  0.86289641  0.61495809    -0.16900
C416        C  0.17208074  0.83678724  0.62734495     0.07200
C417        C  0.20721411  0.80467335  0.63814313     0.09000
C418        C  0.23529626  0.77751168  0.65280933    -0.17700
C419        C  0.15155450  0.64727004  0.88184226    -0.16900
C420        C  0.17718244  0.66336091  0.85317715     0.07200
C421        C  0.20709887  0.67257566  0.81582642     0.09000
C422        C  0.23225510  0.68104600  0.78358694    -0.17700
C423        C  0.36118928  0.77539921  0.75698325    -0.16900
C424        C  0.37715591  0.80339645  0.78389539     0.07200
C425        C  0.38619922  0.83711748  0.81842316     0.09000
C426        C  0.39553710  0.86572310  0.84776815    -0.17700
C427        C  0.23527474  0.77906950  0.39987153    -0.16900
C428        C  0.20397360  0.80487222  0.41033786     0.07200
C429        C  0.16568187  0.83418027  0.41869582     0.09000
C430        C  0.13425017  0.85895338  0.43108580    -0.17700
C431        C  0.24593086  0.64521087  0.30733643    -0.16900
C432        C  0.21774956  0.62888239  0.28091181     0.07200
C433        C  0.18357833  0.61971493  0.24703495     0.09000
C434        C  0.15529308  0.61068921  0.21742168    -0.17700
C435        C  0.38837443  0.84887548  0.18836973    -0.16900
C436        C  0.37622495  0.82099055  0.21700352     0.07200
C437        C  0.36569005  0.79067748  0.25378599     0.09000
C438        C  0.35221907  0.76692353  0.28540025    -0.17700
C439        C  0.70375876  0.75030278  0.40719967    -0.16900
C440        C  0.73311122  0.77670563  0.42134730     0.07200
C441        C  0.76721717  0.81109402  0.42881337     0.09000
C442        C  0.79487686  0.84129072  0.43795020    -0.17700
C443        C  0.69934187  0.63763920  0.28906094    -0.16900
C444        C  0.72993922  0.62005821  0.26642859     0.07200
C445        C  0.76898650  0.60800684  0.23939914     0.09000
C446        C  0.80141245  0.59699432  0.21518644    -0.17700
C447        C  0.57379837  0.87277428  0.19695075    -0.16900
C448        C  0.58919391  0.84370768  0.22262417     0.07200
C449        C  0.59955815  0.80647362  0.25239937     0.09000
C450        C  0.60909177  0.77468551  0.27773037    -0.17700
C451        C  0.69400868  0.29719665  0.41936205    -0.16900
C452        C  0.71715887  0.26670576  0.43586801     0.07200
C453        C  0.74655742  0.22903896  0.44573582     0.09000
C454        C  0.77282556  0.19811333  0.45560650    -0.17700
C455        C  0.81848511  0.41412871  0.20126014    -0.16900
C456        C  0.78886879  0.40042380  0.22738889     0.07200
C457        C  0.75216565  0.39326966  0.25890791     0.09000
C458        C  0.72098584  0.38609217  0.28589756    -0.17700
C459        C  0.58263937  0.29852880  0.29994098    -0.16900
C460        C  0.56349266  0.27050311  0.27516791     0.07200
C461        C  0.54902319  0.23591912  0.24340924     0.09000
C462        C  0.53669288  0.20746725  0.21499605    -0.17700
loop_ 
_geom_bond_atom_site_label_1 
_geom_bond_atom_site_label_2 
_geom_bond_distance 
_geom_bond_site_symmetry_2 
_ccdc_geom_bond_type 
C1            N2   1.351       .  A
C1            N6   1.352       .  A
C1          C458   1.420       .  S
N2            C3   1.352       .  A
C3            N4   1.353       .  A
C3          C451   1.417       .  S
N4            C5   1.353       .  A
C5            N6   1.353       .  A
C5          C459   1.420       .  S
C7            N8   1.353       .  A
C7           N12   1.355       .  A
C7          C443   1.420       .  S
N8            C9   1.352       .  A
C9           N10   1.351       .  A
C9          C439   1.417       .  S
N10          C11   1.350       .  A
C11          N12   1.354       .  A
C11         C450   1.422       .  S
C13          N14   1.353       .  A
C13          N18   1.352       .  A
C13         C438   1.421       .  S
N14          C15   1.353       .  A
C15          N16   1.352       .  A
C15         C427   1.420       .  S
N16          C17   1.352       .  A
C17          N18   1.353       .  A
C17         C431   1.418       .  S
C19          N20   1.351       .  A
C19          N24   1.354       .  A
C19         C423   1.416       .  S
N20          C21   1.349       .  A
C21          N22   1.351       .  A
C21         C422   1.416       .  S
N22          C23   1.352       .  A
C23          N24   1.354       .  A
C23         C418   1.419       .  S
C25          N26   1.350       .  A
C25          N30   1.352       .  A
C25         C406   1.417       .  S
N26          C27   1.352       .  A
C27          N28   1.354       .  A
C27         C411   1.418       .  S
N28          C29   1.354       .  A
C29          N30   1.352       .  A
C29         C407   1.420       .  S
C31          N32   1.352       .  A
C31          N36   1.353       .  A
C31         C391   1.418       .  S
N32          C33   1.351       .  A
C33          N34   1.352       .  A
C33         C399   1.420       .  S
N34          C35   1.352       .  A
C35          N36   1.353       .  A
C35         C398   1.420       .  S
C37          N38   1.352       .  A
C37          N42   1.351       .  A
C37         C387   1.418       .  S
N38          C39   1.352       .  A
C39          N40   1.353       .  A
C39         C379   1.418       .  S
N40          C41   1.353       .  A
C41          N42   1.352       .  A
C41         C383   1.415       .  S
C43          N44   1.353       .  A
C43          N48   1.352       .  A
C43         C378   1.420       .  S
N44          C45   1.354       .  A
C45          N46   1.353       .  A
C45         C367   1.421       .  S
N46          C47   1.353       .  A
C47          N48   1.351       .  A
C47         C374   1.418       .  S
O49         Ti67   2.182       .  S
O49         Ti66   2.188       .  S
O50          C51   1.264       .  A
O50         Ti58   2.108       .  S
C51         C454   1.418       .  S
C51          O87   1.267       .  A
O52          C85   1.282   1_565  A
O52         Ti89   2.188       .  S
O53         Ti89   2.156   1_545  S
O53         Ti67   2.158       .  S
C54          O69   1.282   1_545  A
C54         O102   1.282       .  A
C54         C351   1.514       .  S
O55          C57   1.282       .  A
O55         Ti58   2.179       .  S
C56         C403   1.415       .  S
C56          O91   1.270       .  A
C56          O77   1.273       .  A
C57          O70   1.282       .  A
C57         C364   1.520       .  S
Ti58         O71   2.173       .  S
Ti58         O74   2.162       .  S
Ti58         O60   2.143       .  S
Ti58         O77   2.123       .  S
Ti59        O104   2.150   1_455  S
Ti59         O99   2.157   1_455  S
Ti59         O78   2.179       .  S
Ti59         O76   2.207       .  S
Ti59         O73   2.127       .  S
Ti59         O82   2.118       .  S
O60         Ti66   2.154   1_655  S
O61        Ti103   2.144   1_545  S
O61         Ti65   2.148       .  S
C62         C415   1.419       .  S
C62          O82   1.269       .  A
C62          O86   1.267       .  A
O63         Ti97   2.171       .  S
O63        Ti103   2.182       .  S
C64         C442   1.417       .  S
C64          O90   1.268       .  A
C64          O96   1.269       .  A
Ti65         O80   2.155       .  S
Ti65         O71   2.177       .  S
Ti65        O102   2.185       .  S
Ti65         O91   2.117       .  S
Ti65         O87   2.120       .  S
Ti66         O74   2.153   1_455  S
Ti66         O94   2.120       .  S
Ti66         O70   2.188   1_455  S
Ti66         O81   2.110       .  S
Ti67         O72   2.157       .  S
Ti67         O98   2.114       .  S
Ti67         O92   2.125       .  S
Ti67         O95   2.174       .  S
O68          C84   1.267       .  A
O68        Ti103   2.129       .  S
O69        Ti103   2.172       .  S
O72         Ti89   2.163   1_545  S
O73          C88   1.274       .  A
O75          C84   1.265       .  A
O75         Ti97   2.110       .  S
O76          C79   1.287   1_455  A
O78         Ti89   2.170       .  S
C79          O93   1.276       .  A
C79         C359   1.513       .  S
O80        Ti103   2.156   1_545  S
O81          C83   1.266       .  A
C83         C382   1.416       .  S
C83          O98   1.266       .  A
C84         C394   1.420       .  S
C85          O95   1.281       .  A
C85         C355   1.517       .  S
O86         Ti89   2.116       .  S
C88         C430   1.419       .  S
C88         O100   1.272       .  A
Ti89        O100   2.120       .  S
O90         Ti97   2.123       .  S
O92         C101   1.272       .  A
O93         Ti97   2.150       .  S
O94         C101   1.270       .  A
O96        Ti103   2.116       .  S
Ti97        O104   2.143       .  S
Ti97         O99   2.157       .  S
C101        C370   1.420       .  S
O105       Ti123   2.174       .  S
O105       Ti122   2.177       .  S
O106        C107   1.265       .  A
O106       Ti114   2.124       .  S
C107        C462   1.420       .  S
C107        O143   1.264       .  A
O108        C141   1.282   1_556  A
O108       Ti145   2.174       .  S
O109       Ti145   2.159   1_554  S
O109       Ti123   2.160       .  S
C110        O125   1.282   1_554  A
C110        O158   1.282       .  A
C110        C335   1.513       .  S
O111        C113   1.277       .  A
O111       Ti114   2.155       .  S
C112        C375   1.420       .  S
C112        O147   1.274       .  A
C112        O133   1.268       .  A
C113        O126   1.287   1_545  A
C113        C343   1.516       .  S
Ti114       O127   2.173       .  S
Ti114       O130   2.159       .  S
Ti114       O116   2.146       .  S
Ti114       O133   2.110       .  S
Ti115       O160   2.146   1_565  S
Ti115       O155   2.162   1_565  S
Ti115       O134   2.192       .  S
Ti115       O132   2.193   1_565  S
Ti115       O129   2.127       .  S
Ti115       O138   2.112       .  S
O116       Ti122   2.157   1_545  S
O117       Ti159   2.138   1_554  S
O117       Ti121   2.142       .  S
C118        C426   1.417       .  S
C118        O138   1.266       .  A
C118        O142   1.266       .  A
O119       Ti153   2.166       .  S
O119       Ti159   2.168       .  S
C120        C414   1.421       .  S
C120        O146   1.272       .  A
C120        O152   1.266       .  A
Ti121       O136   2.155       .  S
Ti121       O127   2.179       .  S
Ti121       O158   2.172       .  S
Ti121       O147   2.141       .  S
Ti121       O143   2.110       .  S
Ti122       O130   2.153   1_565  S
Ti122       O150   2.127       .  S
Ti122       O126   2.206       .  S
Ti122       O137   2.117       .  S
Ti123       O128   2.160       .  S
Ti123       O154   2.119       .  S
Ti123       O148   2.129       .  S
Ti123       O151   2.196       .  S
O124        C140   1.270       .  A
O124       Ti159   2.129       .  S
O125       Ti159   2.183       .  S
O128       Ti145   2.156   1_554  S
O129        C144   1.272       .  A
O131        C140   1.269       .  A
O131       Ti153   2.114       .  S
O132        C135   1.284       .  A
O134       Ti145   2.185       .  S
C135        O149   1.283       .  A
C135        C348   1.519       .  S
O136       Ti159   2.162   1_554  S
O137        C139   1.268       .  A
C139        C435   1.420       .  S
C139        O154   1.268       .  A
C140        C390   1.418       .  S
C141        O151   1.284       .  A
C141        C340   1.520       .  S
O142       Ti145   2.116       .  S
C144        C402   1.418       .  S
C144        O156   1.272       .  A
Ti145       O156   2.118       .  S
O146       Ti153   2.140       .  S
O148        C157   1.275       .  A
O149       Ti153   2.176       .  S
O150        C157   1.275       .  A
O152       Ti159   2.108       .  S
Ti153       O160   2.145       .  S
Ti153       O155   2.163       .  S
C157        C447   1.421       .  S
O161       Ti179   2.177       .  S
O161       Ti178   2.176       .  S
O162        C163   1.274       .  A
O162       Ti170   2.123       .  S
C163        C455   1.417       .  S
C163        O199   1.275       .  A
O164        C197   1.279   1_455  A
O164       Ti201   2.166       .  S
O165       Ti201   2.152   1_655  S
O165       Ti179   2.161       .  S
C166        O181   1.278   1_655  A
C166        O214   1.286       .  A
C166        C327   1.513       .  S
O167        C169   1.279       .  A
O167       Ti170   2.166       .  S
C168        C446   1.420       .  S
C168        O203   1.266       .  A
C168        O189   1.262       .  A
C169        O182   1.283   1_554  A
C169        C323   1.515       .  S
Ti170       O183   2.173       .  S
Ti170       O186   2.153       .  S
Ti170       O172   2.160       .  S
Ti170       O189   2.105       .  S
Ti171       O216   2.151   1_556  S
Ti171       O211   2.145   1_556  S
Ti171       O190   2.188       .  S
Ti171       O188   2.194   1_556  S
Ti171       O185   2.115       .  S
Ti171       O194   2.119       .  S
O172       Ti178   2.152   1_554  S
O173       Ti215   2.158   1_655  S
O173       Ti177   2.157       .  S
C174        C419   1.413       .  S
C174        O194   1.272       .  A
C174        O198   1.272       .  A
O175       Ti209   2.172       .  S
O175       Ti215   2.170       .  S
C176        C371   1.419       .  S
C176        O202   1.266       .  A
C176        O208   1.268       .  A
Ti177       O192   2.148       .  S
Ti177       O183   2.187       .  S
Ti177       O214   2.200       .  S
Ti177       O203   2.119       .  S
Ti177       O199   2.127       .  S
Ti178       O186   2.165   1_556  S
Ti178       O206   2.128       .  S
Ti178       O182   2.193       .  S
Ti178       O193   2.116       .  S
Ti179       O184   2.148       .  S
Ti179       O210   2.127       .  S
Ti179       O204   2.109       .  S
Ti179       O207   2.194       .  S
O180        C196   1.267       .  A
O180       Ti215   2.113       .  S
O181       Ti215   2.156       .  S
O184       Ti201   2.152   1_655  S
O185        C200   1.264       .  A
O187        C196   1.267       .  A
O187       Ti209   2.124       .  S
O188        C191   1.284       .  A
O190       Ti201   2.175       .  S
C191        O205   1.279       .  A
C191        C319   1.514       .  S
O192       Ti215   2.142   1_655  S
O193        C195   1.270       .  A
C195        C395   1.419       .  S
C195        O210   1.271       .  A
C196        C434   1.419       .  S
C197        O207   1.283       .  A
C197        C331   1.516       .  S
O198       Ti201   2.117       .  S
C200        C386   1.415       .  S
C200        O212   1.261       .  A
Ti201       O212   2.100       .  S
O202       Ti209   2.110       .  S
O204        C213   1.267       .  A
O205       Ti209   2.163       .  S
O206        C213   1.271       .  A
O208       Ti215   2.127       .  S
Ti209       O216   2.155       .  S
Ti209       O211   2.139       .  S
C213        C410   1.419       .  S
N217        C222   1.365       .  A
N217        C221   1.364       .  A
N217        H249   1.032       .  S
N218        C225   1.363       .  A
N218        C226   1.362       .  A
N219        C224   1.365       .  A
N219        C223   1.365       .  A
N219        H250   1.033       .  S
N220        C227   1.365       .  A
N220        C228   1.363       .  A
C221        C229   1.387       .  A
C221        C237   1.438       .  A
C222        C238   1.441       .  A
C222        C230   1.389       .  A
C223        C231   1.387       .  A
C223        C240   1.441       .  A
C224        C239   1.442       .  A
C224        C232   1.388       .  A
C225        C237   1.437       .  A
C225        C233   1.387       .  A
C226        C240   1.437       .  A
C226        C234   1.388       .  A
C227        C235   1.386       .  A
C227        C238   1.439       .  A
C228        C236   1.388       .  A
C228        C239   1.441       .  A
C229        C230   1.381       .  A
C229        H241   1.082       .  S
C230        H242   1.082       .  S
C231        C232   1.381       .  A
C231        H243   1.081       .  S
C232        H244   1.081       .  S
C233        C234   1.378       .  A
C233        H245   1.082       .  S
C234        H246   1.082       .  S
C235        C236   1.380       .  A
C235        H247   1.082       .  S
C236        H248   1.082       .  S
C237        C328   1.526       .  S
C238        C363   1.530       .  S
C239        C332   1.530       .  S
C240        C360   1.527       .  S
N251        C256   1.364       .  A
N251        C255   1.366       .  A
N251        H283   1.033       .  S
N252        C259   1.362       .  A
N252        C260   1.363       .  A
N253        C258   1.366       .  A
N253        C257   1.368       .  A
N253        H284   1.033       .  S
N254        C261   1.365       .  A
N254        C262   1.364       .  A
C255        C263   1.387       .  A
C255        C271   1.438       .  A
C256        C272   1.438       .  A
C256        C264   1.388       .  A
C257        C265   1.387       .  A
C257        C274   1.440       .  A
C258        C273   1.442       .  A
C258        C266   1.389       .  A
C259        C271   1.435       .  A
C259        C267   1.387       .  A
C260        C274   1.435       .  A
C260        C268   1.387       .  A
C261        C269   1.387       .  A
C261        C272   1.439       .  A
C262        C270   1.387       .  A
C262        C273   1.439       .  A
C263        C264   1.380       .  A
C263        H275   1.082       .  S
C264        H276   1.082       .  S
C265        C266   1.382       .  A
C265        H277   1.082       .  S
C266        H278   1.082       .  S
C267        C268   1.377       .  A
C267        H279   1.082       .  S
C268        H280   1.082       .  S
C269        C270   1.379       .  A
C269        H281   1.081       .  S
C270        H282   1.082       .  S
C271        C352   1.526       .  S
C272        C344   1.530       .  S
C273        C356   1.528       .  S
C274        C347   1.528       .  S
N285        C290   1.365       .  A
N285        C289   1.365       .  A
N285        H317   1.032       .  S
N286        C293   1.363       .  A
N286        C294   1.365       .  A
N287        C292   1.365       .  A
N287        C291   1.366       .  A
N287        H318   1.031       .  S
N288        C295   1.362       .  A
N288        C296   1.363       .  A
C289        C297   1.389       .  A
C289        C305   1.441       .  A
C290        C306   1.439       .  A
C290        C298   1.387       .  A
C291        C299   1.389       .  A
C291        C308   1.442       .  A
C292        C307   1.440       .  A
C292        C300   1.388       .  A
C293        C305   1.440       .  A
C293        C301   1.388       .  A
C294        C308   1.439       .  A
C294        C302   1.386       .  A
C295        C303   1.387       .  A
C295        C306   1.436       .  A
C296        C304   1.387       .  A
C296        C307   1.437       .  A
C297        C298   1.380       .  A
C297        H309   1.081       .  S
C298        H310   1.082       .  S
C299        C300   1.381       .  A
C299        H311   1.082       .  S
C300        H312   1.082       .  S
C301        C302   1.379       .  A
C301        H313   1.082       .  S
C302        H314   1.082       .  S
C303        C304   1.378       .  A
C303        H315   1.082       .  S
C304        H316   1.082       .  S
C305        C324   1.530       .  S
C306        C336   1.523       .  S
C307        C320   1.527       .  S
C308        C339   1.532       .  S
C319        C320   1.359       .  D
C319        H321   1.087       .  S
C320        H322   1.086   1_554  S
C323        C324   1.361       .  D
C323        H325   1.086       .  S
C324        H326   1.086   1_554  S
C327        C328   1.358       .  D
C327        H329   1.087   1_655  S
C328        H330   1.086       .  S
C331        C332   1.361       .  D
C331        H333   1.086   1_655  S
C332        H334   1.086       .  S
C335        C336   1.359       .  D
C335        H337   1.086       .  S
C336        H338   1.086   1_554  S
C339        C340   1.363       .  D
C339        H341   1.086       .  S
C340        H342   1.086   1_554  S
C343        C344   1.358       .  D
C343        H345   1.087       .  S
C344        H346   1.086   1_545  S
C347        C348   1.362       .  D
C347        H349   1.086   1_545  S
C348        H350   1.086       .  S
C351        C352   1.360       .  D
C351        H353   1.086   1_545  S
C352        H354   1.086       .  S
C355        C356   1.362       .  D
C355        H357   1.086       .  S
C356        H358   1.086   1_545  S
C359        C360   1.357       .  D
C359        H361   1.087       .  S
C360        H362   1.086   1_655  S
C363        C364   1.363       .  D
C363        H365   1.086   1_655  S
C364        H366   1.086       .  S
C367        C368   1.198       .  T
C368        C369   1.401       .  S
C369        C370   1.198       .  T
C371        C372   1.198       .  T
C372        C373   1.400       .  S
C373        C374   1.197       .  T
C375        C376   1.198       .  T
C376        C377   1.401       .  S
C377        C378   1.198       .  T
C379        C380   1.196       .  T
C380        C381   1.397       .  S
C381        C382   1.196       .  T
C383        C384   1.195       .  T
C384        C385   1.396       .  S
C385        C386   1.195       .  T
C387        C388   1.197       .  T
C388        C389   1.399       .  S
C389        C390   1.197       .  T
C391        C392   1.197       .  T
C392        C393   1.400       .  S
C393        C394   1.198       .  T
C395        C396   1.197       .  T
C396        C397   1.400       .  S
C397        C398   1.198       .  T
C399        C400   1.197       .  T
C400        C401   1.399       .  S
C401        C402   1.197       .  T
C403        C404   1.195       .  T
C404        C405   1.397       .  S
C405        C406   1.196       .  T
C407        C408   1.197       .  T
C408        C409   1.399       .  S
C409        C410   1.197       .  T
C411        C412   1.197       .  T
C412        C413   1.400       .  S
C413        C414   1.199       .  T
C415        C416   1.197       .  T
C416        C417   1.399       .  S
C417        C418   1.197       .  T
C419        C420   1.194       .  T
C420        C421   1.395       .  S
C421        C422   1.195       .  T
C423        C424   1.196       .  T
C424        C425   1.398       .  S
C425        C426   1.197       .  T
C427        C428   1.198       .  T
C428        C429   1.400       .  S
C429        C430   1.197       .  T
C431        C432   1.197       .  T
C432        C433   1.399       .  S
C433        C434   1.198       .  T
C435        C436   1.198       .  T
C436        C437   1.400       .  S
C437        C438   1.198       .  T
C439        C440   1.196       .  T
C440        C441   1.399       .  S
C441        C442   1.197       .  T
C443        C444   1.197       .  T
C444        C445   1.400       .  S
C445        C446   1.198       .  T
C447        C448   1.198       .  T
C448        C449   1.401       .  S
C449        C450   1.199       .  T
C451        C452   1.196       .  T
C452        C453   1.398       .  S
C453        C454   1.197       .  T
C455        C456   1.197       .  T
C456        C457   1.399       .  S
C457        C458   1.198       .  T
C459        C460   1.197       .  T
C460        C461   1.399       .  S
C461        C462   1.198       .  T
