geometry optimzed in LAMMPS
_audit_creation_date              2020-12-01 
_audit_creation_method            'lammps2cif' 
_symmetry_space_group_name_H-M    'P1' 
_symmetry_Int_Tables_number       1 
_symmetry_cell_setting            triclinic 
loop_ 
_symmetry_equiv_pos_as_xyz 
  x,y,z 
_cell_length_a                    49.39492667 
_cell_length_b                    49.41797031226907 
_cell_length_c                    30.062483977998966 
_cell_angle_alpha                 89.83246652816813 
_cell_angle_beta                  90.16942732589425 
_cell_angle_gamma                 119.96785207561814 
loop_ 
_atom_site_label 
_atom_site_type_symbol 
_atom_site_fract_x 
_atom_site_fract_y 
_atom_site_fract_z 
_atom_site_charge 
O1          O  0.79398624  0.66678405  0.65190091    -0.71900
O2          O  0.87998359  0.70333804  0.68107877    -0.72200
O3          O  0.84621960  0.68522379  0.60475258    -0.72000
O4          O  0.82763070  0.68450434  0.72829996    -0.72000
O5          O  0.82183757  0.63814268  0.73417140    -0.72000
O6          O  0.84148656  0.63950415  0.61207583    -0.72000
O7          O  0.87467289  0.65725279  0.68856420    -0.71900
O8          O  0.78879347  0.62066760  0.65778533    -0.72100
V9          V  0.83687262  0.68410799  0.66663983     1.35200
V10         V  0.83180088  0.63981130  0.67301416     1.35200
C11         C  0.77681857  0.63749709  0.64895141     0.77300
C12         C  0.89192098  0.68661643  0.69065965     0.77400
C13         C  0.84621185  0.66196801  0.58696108     0.77200
C14         C  0.82244908  0.66139338  0.75257377     0.77200
O15         O  0.15919545  0.80235117  0.90315919    -0.71900
O16         O  0.17681984  0.81814667  0.77966584    -0.72200
O17         O  0.21122352  0.83515142  0.85490654    -0.72000
O18         O  0.12492292  0.78530041  0.82748670    -0.72000
O19         O  0.11965974  0.82630409  0.83148160    -0.72000
O20         O  0.20567257  0.87590588  0.86135036    -0.72000
O21         O  0.17230493  0.85951301  0.78476055    -0.71900
O22         O  0.15321723  0.84290479  0.90755748    -0.72100
V23         V  0.16792986  0.81102621  0.84142515     1.35200
V24         V  0.16280433  0.85035241  0.84613551     1.35200
C25         C  0.15374878  0.82032728  0.92659294     0.77300
C26         C  0.17723997  0.84133938  0.76100783     0.77400
C27         C  0.22295277  0.86383200  0.86385658     0.77200
C28         C  0.10770955  0.79739253  0.82392659     0.77200
O29         O  0.50464001  0.96996304  0.94606826    -0.71900
O30         O  0.49065694  0.96977550  0.07045931    -0.72200
O31         O  0.45400600  0.95150932  0.99715106    -0.72000
O32         O  0.54118094  0.98822287  0.01998790    -0.72000
O33         O  0.54586703  0.03425748  0.01666460    -0.72000
O34         O  0.45968698  0.99761680  0.98931266    -0.72000
O35         O  0.49410676  0.01503243  0.06450049    -0.71900
O36         O  0.51148515  0.01678568  0.94150605    -0.72100
V37         V  0.49773173  0.97071387  0.00823532     1.35200
V38         V  0.50269163  0.01501016  0.00306428     1.35200
C39         C  0.50957104  0.99318013  0.92233215     0.77300
C40         C  0.49066572  0.99274323  0.08901752     0.77400
C41         C  0.44197426  0.96833997  0.98847494     0.77200
C42         C  0.55804668  0.01749842  0.02432548     0.77200
O43         O  0.15656489  0.31740290  0.39423846    -0.71900
O44         O  0.17816780  0.32681855  0.27169606    -0.72200
O45         O  0.20999312  0.34138997  0.34910741    -0.72000
O46         O  0.12417955  0.30267533  0.31672480    -0.72000
O47         O  0.12693742  0.34788507  0.31620919    -0.72000
O48         O  0.21276006  0.38666197  0.34798143    -0.72000
O49         O  0.18076514  0.37195976  0.27075965    -0.71900
O50         O  0.15905346  0.36256007  0.39375266    -0.72100
V51         V  0.16716729  0.32290931  0.33289606     1.35200
V52         V  0.16977661  0.36636866  0.33223604     1.35200
C53         C  0.15510343  0.33877756  0.41519994     0.77300
C54         C  0.18334099  0.35100659  0.25026785     0.77400
C55         C  0.22594629  0.37065405  0.35426024     0.77200
C56         C  0.11112644  0.31876495  0.30970519     0.77200
O57         O  0.85082281  0.15582479  0.09227360    -0.71900
O58         O  0.83042697  0.14059961  0.21535872    -0.72200
O59         O  0.79791147  0.12293156  0.13847542    -0.72000
O60         O  0.88350440  0.17342085  0.16925291    -0.72000
O61         O  0.87759378  0.21403719  0.17250839    -0.72000
O62         O  0.79218303  0.16367572  0.14043805    -0.72000
O63         O  0.82443029  0.18117913  0.21775638    -0.71900
O64         O  0.84551625  0.19667238  0.09502586    -0.72100
V65         V  0.84057310  0.14899296  0.15387659     1.35200
V66         V  0.83504014  0.18810046  0.15635481     1.35200
C67         C  0.85111248  0.17851158  0.07221102     0.77300
C68         C  0.82428688  0.15852842  0.23772465     0.77400
C69         C  0.78062807  0.13478393  0.13308080     0.77200
C70         C  0.89500887  0.20223325  0.17704892     0.77200
O71         O  0.51605333  0.49665922  0.42546476    -0.71900
O72         O  0.49627303  0.47896541  0.54832992    -0.72200
O73         O  0.46287465  0.46614415  0.47195282    -0.72000
O74         O  0.54895010  0.50913847  0.50222130    -0.72000
O75         O  0.54837613  0.55278159  0.50594909    -0.72000
O76         O  0.46115821  0.50875551  0.48113128    -0.72000
O77         O  0.49698168  0.52297605  0.55567316    -0.71900
O78         O  0.51297871  0.53875909  0.43174877    -0.72100
V79         V  0.50597197  0.48855077  0.48699232     1.35200
V80         V  0.50482053  0.52996054  0.49346494     1.35200
C81         C  0.51733808  0.52044361  0.40738790     0.77300
C82         C  0.49515161  0.49887134  0.57348970     0.77400
C83         C  0.44722292  0.48004288  0.47121532     0.77200
C84         C  0.56304752  0.53806538  0.51036442     0.77200
O85         O  0.18535759  0.36320781  0.76848856    -0.71900
O86         O  0.20432780  0.36049976  0.89092711    -0.72200
O87         O  0.21479186  0.33902491  0.81390844    -0.72000
O88         O  0.17509498  0.38495594  0.84553957    -0.72000
O89         O  0.13051725  0.34184192  0.84989132    -0.72000
O90         O  0.17153335  0.29557494  0.82551420    -0.72000
O91         O  0.15929956  0.31869814  0.89952948    -0.71900
O92         O  0.14262560  0.31871981  0.77587932    -0.72100
V93         V  0.19403377  0.36109645  0.82985700     1.35200
V94         V  0.15182032  0.31952247  0.83755323     1.35200
C95         C  0.16144598  0.34064720  0.75079429     0.77300
C96         C  0.18458695  0.33960102  0.91658164     0.77400
C97         C  0.19997598  0.30950916  0.81401450     0.77200
C98         C  0.14612814  0.37126536  0.85349635     0.77200
O99         O  0.35201534  0.17382839  0.73599525    -0.71900
O100        O  0.35035396  0.19019991  0.61284971    -0.72200
O101        O  0.33060131  0.20478181  0.68789634    -0.72000
O102        O  0.37155430  0.15904384  0.66059748    -0.72000
O103        O  0.32645679  0.11712203  0.65194174    -0.72000
O104        O  0.28574503  0.16215742  0.68433486    -0.72000
O105        O  0.30461271  0.14876533  0.60699012    -0.71900
O106        O  0.30799786  0.13059439  0.72967732    -0.72100
V107        V  0.35024231  0.18112972  0.67428108     1.35200
V108        V  0.30703431  0.14046246  0.66840078     1.35200
C109        C  0.33037337  0.14958549  0.75418351     0.77300
C110        C  0.32745692  0.17209415  0.58867242     0.77400
C111        C  0.30117135  0.19119569  0.69175766     0.77200
C112        C  0.35592895  0.13050566  0.64993594     0.77200
O113        O  0.01133854  0.46702713  0.98672460    -0.71900
O114        O  0.96487121  0.50704435  0.01384035    -0.72200
O115        O  0.98518240  0.49327754  0.93836120    -0.72000
O116        O  0.99108014  0.48068032  0.06190416    -0.72000
O117        O  0.03457195  0.52487839  0.06517775    -0.72000
O118        O  0.02758091  0.53842517  0.94203787    -0.72000
O119        O  0.00782565  0.55154601  0.01893724    -0.71900
O120        O  0.05428971  0.51182260  0.98868768    -0.72100
V121        V  0.98894130  0.48791216  0.00021701     1.35200
V122        V  0.03023828  0.53082971  0.00361647     1.35200
C123        C  0.04068838  0.48263924  0.98235748     0.77300
C124        C  0.97840180  0.53593126  0.02256606     0.77400
C125        C  0.00573396  0.51760410  0.91882247     0.77200
C126        C  0.01348147  0.50099272  0.08487765     0.77200
O127        O  0.61435003  0.82823832  0.33713730    -0.71900
O128        O  0.65405657  0.78155499  0.30837000    -0.72200
O129        O  0.63581867  0.79680776  0.38394052    -0.72000
O130        O  0.63234937  0.81249433  0.26107054    -0.72000
O131        O  0.67730258  0.85508450  0.26595330    -0.72000
O132        O  0.68137139  0.83850003  0.38892060    -0.72000
O133        O  0.69919560  0.82379841  0.31204493    -0.71900
O134        O  0.65981006  0.87006221  0.34276432    -0.72100
V135        V  0.63500289  0.80561300  0.32268782     1.35200
V136        V  0.67854114  0.84605383  0.32733672     1.35200
C137        C  0.63044027  0.85706088  0.34600899     0.77300
C138        C  0.68338968  0.79487469  0.30395423     0.77400
C139        C  0.65898080  0.81503984  0.40764957     0.77200
C140        C  0.65445400  0.83608390  0.24228668     0.77200
O141        O  0.85247697  0.67656162  0.22961377    -0.71900
O142        O  0.83962114  0.68344230  0.10633247    -0.72200
O143        O  0.82348513  0.70055031  0.18204625    -0.72000
O144        O  0.86864185  0.65936820  0.15357705    -0.72000
O145        O  0.82528105  0.61488694  0.15282968    -0.72000
O146        O  0.78086189  0.65560687  0.18757117    -0.72000
O147        O  0.79564044  0.63984636  0.10919303    -0.71900
O148        O  0.81065284  0.63095615  0.23138462    -0.72100
V149        V  0.84523958  0.67909898  0.16797485     1.35200
V150        V  0.80393508  0.63615146  0.17021616     1.35200
C151        C  0.83349068  0.65285377  0.25187493     0.77300
C152        C  0.81542780  0.66294837  0.08655023     0.77400
C153        C  0.79459880  0.68502018  0.19051540     0.77200
C154        C  0.85446340  0.63026321  0.14657522     0.77200
O155        O  0.49982912  0.95289077  0.49220314    -0.71900
O156        O  0.45297022  0.99208292  0.52248872    -0.72200
O157        O  0.47023564  0.97639386  0.44593579    -0.72000
O158        O  0.48255254  0.96811644  0.56845970    -0.72000
O159        O  0.52561069  0.01282892  0.56746800    -0.72000
O160        O  0.51210216  0.02205128  0.44498066    -0.72000
O161        O  0.49556093  0.03716729  0.52282796    -0.71900
O162        O  0.54211387  0.99827498  0.48948694    -0.72100
V163        V  0.47720035  0.97330235  0.50727351     1.35200
V164        V  0.51800549  0.01676068  0.50627554     1.35200
C165        C  0.52881861  0.96900558  0.48460179     0.77300
C166        C  0.46638747  0.02122001  0.52918777     0.77400
C167        C  0.48947410  0.00015417  0.42416242     0.77200
C168        C  0.50616905  0.98887950  0.58891572     0.77200
O169        O  0.31444455  0.18017816  0.23131298    -0.71900
O170        O  0.30454377  0.15754258  0.10911780    -0.72200
O171        O  0.28688364  0.12605959  0.18756369    -0.72000
O172        O  0.33209949  0.21157946  0.15388340    -0.72000
O173        O  0.37533917  0.21019344  0.15609268    -0.72000
O174        O  0.33008882  0.12462206  0.18903908    -0.72000
O175        O  0.34784005  0.15633951  0.11102074    -0.71900
O176        O  0.35738858  0.17840215  0.23376566    -0.72100
V177        V  0.31030765  0.16875216  0.17038964     1.35200
V178        V  0.35182365  0.16740342  0.17236693     1.35200
C179        C  0.33724404  0.18256682  0.25375234     0.77300
C180        C  0.32506978  0.15421877  0.08872487     0.77400
C181        C  0.30099034  0.11118129  0.19597125     0.77200
C182        C  0.36143470  0.22544452  0.14918922     0.77200
O183        O  0.48179559  0.50912596  0.05232945    -0.71900
O184        O  0.47039774  0.48694816  0.92965425    -0.72200
O185        O  0.45553229  0.45528281  0.00808465    -0.72000
O186        O  0.49635031  0.54075798  0.97438026    -0.72000
O187        O  0.54047738  0.54121201  0.97044590    -0.72000
O188        O  0.50030845  0.45709373  0.01060577    -0.72000
O189        O  0.51365148  0.48577561  0.93014364    -0.71900
O190        O  0.52726360  0.51244232  0.05087096    -0.72100
V191        V  0.47685704  0.49803443  0.99104009     1.35200
V192        V  0.51957751  0.49911536  0.99049496     1.35200
C193        C  0.50609762  0.51364628  0.07290052     0.77300
C194        C  0.49034777  0.48304722  0.90859913     0.77400
C195        C  0.47119574  0.44218201  0.01769666     0.77200
C196        C  0.52509397  0.55512354  0.96484446     0.77200
O197        O  0.15619528  0.84611716  0.40551933    -0.71900
O198        O  0.14186466  0.82178252  0.28438203    -0.72200
O199        O  0.13128978  0.79161835  0.36262174    -0.72000
O200        O  0.16716118  0.87648502  0.32672425    -0.72000
O201        O  0.21316142  0.88083465  0.32725699    -0.72000
O202        O  0.17657442  0.79488887  0.35584523    -0.72000
O203        O  0.18841479  0.82796105  0.27961293    -0.71900
O204        O  0.20068751  0.84747035  0.40331629    -0.72100
V205        V  0.15003016  0.83412564  0.34476735     1.35200
V206        V  0.19386640  0.83774628  0.34153209     1.35200
C207        C  0.18022803  0.84965437  0.42579461     0.77300
C208        C  0.16283925  0.82138369  0.26089012     0.77400
C209        C  0.14801187  0.77894498  0.36597012     0.77200
C210        C  0.19629158  0.89297032  0.32036271     0.77200
O211        O  0.98805236  0.51231332  0.55993271    -0.71900
O212        O  0.98450375  0.49453186  0.43615466    -0.72200
O213        O  0.96096821  0.46008246  0.51072094    -0.72000
O214        O  0.01113345  0.54650031  0.48573023    -0.72000
O215        O  0.05301654  0.54285705  0.49173453    -0.72000
O216        O  0.00270857  0.45621712  0.51696147    -0.72000
O217        O  0.02619185  0.49068670  0.44273005    -0.71900
O218        O  0.02973462  0.50843589  0.56599070    -0.72100
V219        V  0.98694512  0.50323758  0.49820762     1.35200
V220        V  0.02707926  0.49959346  0.50424041     1.35200
C221        C  0.00971026  0.51361492  0.58410166     0.77300
C222        C  0.00496812  0.48986978  0.41818678     0.77400
C223        C  0.97328230  0.44354718  0.51912831     0.77200
C224        C  0.04055796  0.55943121  0.48437249     0.77200
O225        O  0.81494028  0.17685446  0.71852048    -0.71900
O226        O  0.79880193  0.15422120  0.59605261    -0.72200
O227        O  0.78512791  0.12282692  0.67395654    -0.72000
O228        O  0.82818338  0.20823367  0.64007429    -0.72000
O229        O  0.87154874  0.20723604  0.63550859    -0.72000
O230        O  0.82866483  0.12203866  0.67135005    -0.72000
O231        O  0.84187376  0.15280437  0.59252247    -0.71900
O232        O  0.85857978  0.17671842  0.71405186    -0.72100
V233        V  0.80761231  0.16553962  0.65715423     1.35200
V234        V  0.84929189  0.16465836  0.65343287     1.35200
C235        C  0.83937585  0.18029595  0.73754663     0.77300
C236        C  0.81798128  0.15025136  0.57302265     0.77400
C237        C  0.79970640  0.10815220  0.67970916     0.77200
C238        C  0.85689247  0.22192194  0.63034544     0.77200
O239        O  0.63182174  0.82190287  0.76173899    -0.71900
O240        O  0.63958962  0.84213055  0.88463451    -0.72200
O241        O  0.65729192  0.87513106  0.80817338    -0.72000
O242        O  0.61420714  0.78889722  0.83826276    -0.72000
O243        O  0.65833095  0.78929574  0.83986625    -0.72000
O244        O  0.70136280  0.87540727  0.81106586    -0.72000
O245        O  0.68334909  0.84193180  0.88732391    -0.71900
O246        O  0.67611275  0.82269184  0.76381192    -0.72100
V247        V  0.63657657  0.83201846  0.82325284     1.35200
V248        V  0.67893795  0.83234127  0.82549827     1.35200
C249        C  0.65306382  0.81978349  0.74143073     0.77300
C250        C  0.66245315  0.84488077  0.90729790     0.77400
C251        C  0.68666948  0.88981378  0.80375110     0.77200
C252        C  0.62900542  0.77446900  0.84466179     0.77200
C253        C  0.78010985  0.03504903  0.74568842    -0.11500
C254        C  0.75041476  0.01393835  0.72898498     0.15000
C255        C  0.73692858  0.02385572  0.69588622     0.01900
C256        C  0.75337800  0.05476070  0.68055835    -0.15900
C257        C  0.78329652  0.07585642  0.69698248    -0.10700
C258        C  0.79651431  0.06586191  0.73045658     0.08600
C259        C  0.73398231  0.98208402  0.74793178     0.09700
S260        S  0.69905116  0.99828867  0.67180045    -0.25000
H261        H  0.74296902  0.06226813  0.65510414     0.19900
S262        S  0.83318515  0.09174702  0.75724481    -0.30700
H263        H  0.79026158  0.02759790  0.77164829     0.10200
C264        C  0.74359853  0.96037358  0.73784111     0.03400
C265        C  0.72827910  0.93079695  0.75772544    -0.13000
C266        C  0.70345808  0.92238031  0.78752352    -0.08700
C267        C  0.69432365  0.94450263  0.79830888     0.06900
C268        C  0.70944532  0.97395941  0.77800906    -0.13800
S269        S  0.77473024  0.97003468  0.69849761    -0.30700
H270        H  0.73514883  0.91377989  0.74909232     0.11100
S271        S  0.66472896  0.93715760  0.83909009    -0.27800
H272        H  0.70250432  0.99099413  0.78642770     0.08400
H273        H  0.82746672  0.11685177  0.76015297     0.26800
H274        H  0.77371032  0.94108647  0.69988818     0.21600
H275        H  0.67236214  0.91917305  0.86733606     0.26900
H276        H  0.69960445  0.97034028  0.67763558     0.15700
C277        C  0.91086208  0.36807239  0.57225781    -0.11500
C278        C  0.92065288  0.34719541  0.55887640     0.15000
C279        C  0.94644542  0.35761095  0.52994767     0.01900
C280        C  0.96308382  0.38908704  0.51742453    -0.15900
C281        C  0.95400548  0.41035201  0.53201251    -0.10700
C282        C  0.92733808  0.39950527  0.55953744     0.08600
C283        C  0.90458553  0.31528143  0.57776963     0.09700
S284        S  0.95939633  0.33198703  0.50822660    -0.25000
H285        H  0.98318597  0.39700542  0.49584951     0.19900
S286        S  0.91448936  0.42486414  0.58244127    -0.30700
H287        H  0.89104123  0.36010033  0.59440875     0.10200
C288        C  0.91897236  0.30600216  0.61028811     0.03400
C289        C  0.90297850  0.27535636  0.62693258    -0.13000
C290        C  0.87275982  0.25394454  0.61200568    -0.08700
C291        C  0.85856883  0.26338920  0.57918022     0.06900
C292        C  0.87437994  0.29401899  0.56300948    -0.13800
S293        S  0.95731364  0.33344857  0.63148816    -0.30700
H294        H  0.91379820  0.26813643  0.65202106     0.11100
S295        S  0.82135334  0.23693848  0.55428564    -0.27800
H296        H  0.86349248  0.30108237  0.53780085     0.08400
H297        H  0.94473815  0.44870296  0.59386390     0.26800
H298        H  0.96043184  0.31245944  0.65980901     0.21600
H299        H  0.82790224  0.21245294  0.55050104     0.26900
H300        H  0.93003706  0.30458228  0.50930304     0.15700
C301        C  0.13728462  0.70612272  0.42514083    -0.11500
C302        C  0.10629696  0.68447791  0.41395426     0.15000
C303        C  0.08944445  0.69382683  0.38586919     0.01900
C304        C  0.10355055  0.72474106  0.37087398    -0.15900
C305        C  0.13452463  0.74651625  0.38226221    -0.10700
C306        C  0.15153728  0.73693219  0.40977074     0.08600
C307        C  0.09143961  0.65310373  0.43469555     0.09700
S308        S  0.04999864  0.66739988  0.36772391    -0.25000
H309        H  0.09036727  0.73172730  0.34964502     0.19900
S310        S  0.19066286  0.76321091  0.42909973    -0.30700
H311        H  0.15010929  0.69921031  0.44725439     0.10200
C312        C  0.10151291  0.63159458  0.42530217     0.03400
C313        C  0.08559925  0.60162756  0.44421696    -0.13000
C314        C  0.05968103  0.59270182  0.47204893    -0.08700
C315        C  0.05089775  0.61498454  0.48346511     0.06900
C316        C  0.06666013  0.64478061  0.46443001    -0.13800
S317        S  0.13330186  0.64152140  0.38708179    -0.30700
H318        H  0.09236521  0.58466688  0.43560359     0.11100
S319        S  0.02026796  0.60716203  0.52269239    -0.27800
H320        H  0.05955779  0.66152963  0.47266223     0.08400
H321        H  0.18463451  0.78743473  0.43955410     0.26800
H322        H  0.13206323  0.61246481  0.38818066     0.21600
H323        H  0.02605220  0.58740960  0.55000550     0.26900
H324        H  0.05268752  0.64038151  0.36814226     0.15700
C325        C  0.57571040  0.62752245  0.89588650    -0.11500
C326        C  0.56838932  0.64896931  0.91470096     0.15000
C327        C  0.54636556  0.63934759  0.94950890     0.01900
C328        C  0.53224330  0.60848970  0.96485518    -0.15900
C329        C  0.54004437  0.58713438  0.94667826    -0.10700
C330        C  0.56157177  0.59671463  0.91109034     0.08600
C331        C  0.58391607  0.68103337  0.89665788     0.09700
S332        S  0.53550673  0.66528777  0.97587383    -0.25000
H333        H  0.51554952  0.60128058  0.99181021     0.19900
S334        S  0.57044062  0.57035256  0.88173507    -0.30700
H335        H  0.59214506  0.63473902  0.86858250     0.10200
C336        C  0.61549863  0.70217777  0.90621065     0.03400
C337        C  0.62970126  0.73220173  0.88779455    -0.13000
C338        C  0.61301733  0.74159586  0.85983799    -0.08700
C339        C  0.58146078  0.71995220  0.84950851     0.06900
C340        C  0.56718349  0.69007881  0.86847692    -0.13800
S341        S  0.63737544  0.69121722  0.94312327    -0.30700
H342        H  0.65378821  0.74873763  0.89614491     0.11100
S343        S  0.55859680  0.72838943  0.81101690    -0.27800
H344        H  0.54299490  0.67349033  0.86054700     0.08400
H345        H  0.53934954  0.54568715  0.88152961     0.26800
H346        H  0.66594010  0.71945895  0.94037920     0.21600
H347        H  0.58339444  0.74524931  0.78118068     0.26900
H348        H  0.56430395  0.69283639  0.96983478     0.15700
C349        C  0.21232249  0.96418367  0.25227959    -0.11500
C350        C  0.23974943  0.98732797  0.27236514     0.15000
C351        C  0.25241952  0.97956055  0.30915079     0.01900
C352        C  0.23777018  0.94861564  0.32423651    -0.15900
C353        C  0.21038610  0.92534921  0.30394253    -0.10700
C354        C  0.19776949  0.93328620  0.26723429     0.08600
C355        C  0.25545883  0.01882733  0.25234214     0.09700
S356        S  0.28750346  0.00776466  0.33748192    -0.25000
H357        H  0.24772041  0.94265395  0.35224785     0.19900
S358        S  0.16481796  0.90464800  0.23577690    -0.30700
H359        H  0.20287280  0.97004404  0.22354768     0.10200
C360        C  0.27980140  0.02784103  0.22132726     0.03400
C361        C  0.29402584  0.05798223  0.20296726    -0.13000
C362        C  0.28435430  0.07929164  0.21503791    -0.08700
C363        C  0.26012762  0.07010865  0.24674329     0.06900
C364        C  0.24555473  0.03984252  0.26425284    -0.13800
S365        S  0.29253478  0.00082669  0.20501185    -0.30700
H366        H  0.31272419  0.06499763  0.17906822     0.11100
S367        S  0.24840841  0.09649320  0.26899402    -0.27800
H368        H  0.22705655  0.03291867  0.28849932     0.08400
H369        H  0.17518423  0.88284188  0.23580309     0.26800
H370        H  0.31538370  0.02070432  0.17440950     0.21600
H371        H  0.27926334  0.12102425  0.27455459     0.26900
H372        H  0.28452700  0.03404495  0.32832163     0.15700
C373        C  0.45605223  0.37102062  0.08622959    -0.11500
C374        C  0.42497147  0.34983106  0.07491546     0.15000
C375        C  0.40894461  0.35931131  0.04546699     0.01900
C376        C  0.42444017  0.38954942  0.02762375    -0.15900
C377        C  0.45585099  0.41062196  0.03804472    -0.10700
C378        C  0.47147557  0.40131005  0.06876933     0.08600
C379        C  0.40972880  0.31833980  0.09534834     0.09700
S380        S  0.36887997  0.33386022  0.02902515    -0.25000
H381        H  0.41198391  0.39647240  0.00474411     0.19900
S382        S  0.51020624  0.42742147  0.08960826    -0.30700
H383        H  0.46816064  0.36407610  0.10974972     0.10200
C384        C  0.41848431  0.29621295  0.08346509     0.03400
C385        C  0.40306747  0.26643428  0.10288981    -0.13000
C386        C  0.37896382  0.25822603  0.13387803    -0.08700
C387        C  0.37107408  0.28088428  0.14696967     0.06900
C388        C  0.38630649  0.31053506  0.12726991    -0.13800
S389        S  0.44822596  0.30537604  0.04193149    -0.30700
H390        H  0.40906082  0.24906175  0.09273031     0.11100
S391        S  0.34268640  0.27381966  0.18961882    -0.27800
H392        H  0.38004349  0.32780268  0.13711545     0.08400
H393        H  0.50467911  0.45244126  0.09608946     0.26800
H394        H  0.44732851  0.27648254  0.04313287     0.21600
H395        H  0.34998238  0.25466777  0.21583331     0.26900
H396        H  0.36991289  0.30596271  0.03095361     0.15700
C397        C  0.68298975  0.82125781  0.52972847    -0.11500
C398        C  0.65368579  0.80449794  0.55037752     0.15000
C399        C  0.62665820  0.78899026  0.52362831     0.01900
C400        C  0.62932646  0.79201643  0.47731935    -0.15900
C401        C  0.65854637  0.80973885  0.45646403    -0.10700
C402        C  0.68578834  0.82345928  0.48329818     0.08600
C403        C  0.65189804  0.80612415  0.59954651     0.09700
S404        S  0.58802513  0.76547040  0.54654930    -0.25000
H405        H  0.60817516  0.78098304  0.45753828     0.19900
S406        S  0.72475728  0.84361053  0.46073248    -0.30700
H407        H  0.70387456  0.83302953  0.55002248     0.10200
C408        C  0.66608619  0.79427332  0.62836750     0.03400
C409        C  0.66582391  0.79874030  0.67448681    -0.13000
C410        C  0.65152875  0.81471348  0.69258519    -0.08700
C411        C  0.63702190  0.82622866  0.66338115     0.06900
C412        C  0.63714866  0.82155554  0.61753565    -0.13800
S413        S  0.68384741  0.77280919  0.60651830    -0.30700
H414        H  0.67674773  0.78967038  0.69661525     0.11100
S415        S  0.61989583  0.84901933  0.68178892    -0.27800
H416        H  0.62660341  0.83107943  0.59541270     0.08400
H417        H  0.71789718  0.82236021  0.42560340     0.26800
H418        H  0.69412372  0.76736105  0.64749148     0.21600
H419        H  0.64510351  0.86830849  0.70980081     0.26900
H420        H  0.59759791  0.75618414  0.58494544     0.15700
C421        C  0.67010621  0.87128194  0.12569658    -0.11500
C422        C  0.65849204  0.84427871  0.09951613     0.15000
C423        C  0.64458827  0.81475461  0.12053630     0.01900
C424        C  0.64237330  0.81290747  0.16694602    -0.15900
C425        C  0.65437085  0.83990199  0.19336431    -0.10700
C426        C  0.66786834  0.86941339  0.17222618     0.08600
C427        C  0.65997968  0.84744346  0.05039954     0.09700
S428        S  0.62956130  0.77856408  0.09019870    -0.25000
H429        H  0.63215843  0.79013646  0.18263008     0.19900
S430        S  0.68116105  0.90531062  0.20246759    -0.30700
H431        H  0.68031109  0.89395183  0.10965710     0.10200
C432        C  0.63300399  0.83930303  0.02498595     0.03400
C433        C  0.63482706  0.83997064  0.97841468    -0.13000
C434        C  0.66327152  0.84924462  0.95638643    -0.08700
C435        C  0.69076788  0.85983806  0.98228404     0.06900
C436        C  0.68871001  0.85829013  0.02883206    -0.13800
S437        S  0.59615517  0.82780029  0.05192325    -0.30700
H438        H  0.61368378  0.83222150  0.95914083     0.11100
S439        S  0.72921584  0.87640171  0.95834877    -0.27800
H440        H  0.70964970  0.86548177  0.04844341     0.08400
H441        H  0.65774947  0.89220223  0.23522692     0.26800
H442        H  0.57935851  0.82607979  0.01315225     0.21600
H443        H  0.72347327  0.89281483  0.92474021     0.26900
H444        H  0.65009888  0.79080824  0.05391993     0.15700
C445        C  0.76761181  0.74406004  0.20538808    -0.11500
C446        C  0.74859051  0.73191078  0.24313987     0.15000
C447        C  0.74383559  0.70371603  0.26206541     0.01900
C448        C  0.75793524  0.68818469  0.24275182    -0.15900
C449        C  0.77759744  0.70067769  0.20570045    -0.10700
C450        C  0.78208612  0.72871783  0.18640868     0.08600
C451        C  0.73221372  0.74790505  0.26005242     0.09700
S452        S  0.72076873  0.68682990  0.31148168    -0.25000
H453        H  0.75447684  0.66681328  0.25783261     0.19900
S454        S  0.80475088  0.74529334  0.13660114    -0.30700
H455        H  0.77069708  0.76529518  0.19018878     0.10200
C456        C  0.74846460  0.77745812  0.28030679     0.03400
C457        C  0.73184952  0.79193638  0.29479054    -0.13000
C458        C  0.69923241  0.77763678  0.28906467    -0.08700
C459        C  0.68318178  0.74792874  0.26830206     0.06900
C460        C  0.69977788  0.73335722  0.25467581    -0.13800
S461        S  0.79022245  0.79634762  0.28879430    -0.30700
H462        H  0.74439602  0.81449969  0.31073282     0.11100
S463        S  0.64198786  0.72778337  0.25592497    -0.27800
H464        H  0.68742072  0.71077249  0.23860780     0.08400
H465        H  0.79716550  0.71650428  0.11707084     0.26800
H466        H  0.79410494  0.82448031  0.30613661     0.21600
H467        H  0.64327859  0.75374006  0.23443276     0.26900
H468        H  0.72749574  0.71532653  0.33110087     0.15700
C469        C  0.55455723  0.90995052  0.46018773    -0.11500
C470        C  0.57492000  0.92445373  0.42438861     0.15000
C471        C  0.58143589  0.95441202  0.41040476     0.01900
C472        C  0.56740948  0.96911724  0.43245654    -0.15900
C473        C  0.54632549  0.95426593  0.46752357    -0.10700
C474        C  0.54043269  0.92461482  0.48213244     0.08600
C475        C  0.58958789  0.90802531  0.40322460     0.09700
S476        S  0.60682930  0.97482532  0.36420439    -0.25000
H477        H  0.57189629  0.99175307  0.42076677     0.19900
S478        S  0.51604449  0.90481671  0.52937965    -0.30700
H479        H  0.54997979  0.88718934  0.47147282     0.10200
C480        C  0.62082369  0.91657496  0.41215051     0.03400
C481        C  0.63368724  0.90013436  0.39173152    -0.13000
C482        C  0.61592856  0.87506006  0.36271200    -0.08700
C483        C  0.58466526  0.86695003  0.35334101     0.06900
C484        C  0.57178197  0.88324521  0.37412349    -0.13800
S485        S  0.64392813  0.94767398  0.45082127    -0.30700
H486        H  0.65751433  0.90630573  0.39950217     0.11100
S487        S  0.56030341  0.83691248  0.31430357    -0.27800
H488        H  0.54777879  0.87689282  0.36705361     0.08400
H489        H  0.52395451  0.93220883  0.55337741     0.26800
H490        H  0.67110434  0.94528664  0.44865933     0.21600
H491        H  0.58446787  0.84448311  0.28349906     0.26900
H492        H  0.60120356  0.94815978  0.34017741     0.15700
C493        C  0.01992400  0.54942904  0.79995451    -0.11500
C494        C  0.00807142  0.52164941  0.77554936     0.15000
C495        C  0.99495782  0.49285432  0.79838347     0.01900
C496        C  0.99332828  0.49240551  0.84481146    -0.15900
C497        C  0.00527335  0.52012721  0.86959633    -0.10700
C498        C  0.01846909  0.54898598  0.84655891     0.08600
C499        C  0.00896503  0.52312921  0.72634109     0.09700
S500        S  0.98027450  0.45584217  0.77037369    -0.25000
H501        H  0.98361197  0.47010111  0.86181683     0.19900
S502        S  0.03236531  0.58578599  0.87438893    -0.30700
H503        H  0.02979120  0.57156751  0.78248526     0.10200
C504        C  0.98174324  0.51426091  0.70109890     0.03400
C505        C  0.98286782  0.51247450  0.65460638    -0.13000
C506        C  0.01084361  0.51982530  0.63264010    -0.08700
C507        C  0.03861415  0.53109194  0.65814632     0.06900
C508        C  0.03724681  0.53214605  0.70458079    -0.13800
S509        S  0.94547874  0.50475819  0.72826232    -0.30700
H510        H  0.96160228  0.50431527  0.63546897     0.11100
S511        S  0.07664539  0.54517102  0.63378419    -0.27800
H512        H  0.05833053  0.53971659  0.72398833     0.08400
H513        H  0.00749430  0.57359380  0.90480171     0.26800
H514        H  0.92815125  0.50109071  0.68929068     0.21600
H515        H  0.07138074  0.56061254  0.59826058     0.26900
H516        H  0.00017751  0.46718024  0.73331672     0.15700
C517        C  0.98123279  0.47362976  0.29591022    -0.11500
C518        C  0.01037523  0.48403500  0.27573060     0.15000
C519        C  0.03704294  0.49375269  0.30272697     0.01900
C520        C  0.03432507  0.49445567  0.34898606    -0.15900
C521        C  0.00536578  0.48518156  0.36940891    -0.10700
C522        C  0.97834658  0.47358217  0.34228867     0.08600
C523        C  0.01267467  0.48770045  0.22670906     0.09700
S524        S  0.07529020  0.50629855  0.28004095    -0.25000
H525        H  0.05525970  0.50313011  0.36907417     0.19900
S526        S  0.93950657  0.45796168  0.36446617    -0.30700
H527        H  0.96070339  0.46593051  0.27535756     0.10200
C528        C  0.00010818  0.46184846  0.19777617     0.03400
C529        C  0.00111507  0.46678708  0.15156977    -0.13000
C530        C  0.01430802  0.49712953  0.13372613    -0.08700
C531        C  0.02680820  0.52292570  0.16315061     0.06900
C532        C  0.02631322  0.51794193  0.20901618    -0.13800
S533        S  0.98323753  0.42267576  0.21971313    -0.30700
H534        H  0.99157461  0.44703744  0.12932630     0.11100
S535        S  0.04140629  0.56259989  0.14491361    -0.27800
H536        H  0.03548293  0.53772671  0.23125439     0.08400
H537        H  0.94448097  0.44267812  0.40046876     0.26800
H538        H  0.97501031  0.40713898  0.17852137     0.21600
H539        H  0.01624824  0.55498014  0.11577293     0.26900
H540        H  0.06478187  0.48773208  0.24154660     0.15700
C541        C  0.87729261  0.57897636  0.08146645    -0.11500
C542        C  0.90683124  0.58799335  0.09947692     0.15000
C543        C  0.91867676  0.61046624  0.13384854     0.01900
C544        C  0.90125277  0.62404740  0.14829517    -0.15900
C545        C  0.87163984  0.61491297  0.13038396    -0.10700
C546        C  0.85954826  0.59195888  0.09660541     0.08600
C547        C  0.92516135  0.57459568  0.08007970     0.09700
S548        S  0.95545602  0.62229237  0.16123019    -0.25000
H549        H  0.91062931  0.64147103  0.17443664     0.19900
S550        S  0.82248974  0.57941488  0.06967310    -0.30700
H551        H  0.86824761  0.56208339  0.05462496     0.10200
C552        C  0.91421355  0.54225811  0.08152679     0.03400
C553        C  0.93164192  0.53044069  0.06117110    -0.13000
C554        C  0.96009456  0.55017320  0.03954982    -0.08700
C555        C  0.97086558  0.58266927  0.03802771     0.06900
C556        C  0.95336819  0.59441097  0.05831361    -0.13800
S557        S  0.87878146  0.51612326  0.11115963    -0.30700
H558        H  0.92342365  0.50563325  0.06332524     0.11100
S559        S  0.00602535  0.61036703  0.00972220    -0.27800
H560        H  0.96158340  0.61927449  0.05654361     0.08400
H561        H  0.82668062  0.60963807  0.06614346     0.26800
H562        H  0.87870325  0.48827826  0.10135973     0.21600
H563        H  0.00040120  0.59089375  0.97287178     0.26900
H564        H  0.95456674  0.59357422  0.15622943     0.15700
C565        C  0.35392974  0.15944533  0.87713011    -0.11500
C566        C  0.32538245  0.13896382  0.89742265     0.15000
C567        C  0.29929585  0.11998396  0.87040829     0.01900
C568        C  0.30195117  0.12297152  0.82392657    -0.15900
C569        C  0.33028765  0.14442105  0.80326876    -0.10700
C570        C  0.35684922  0.16212861  0.83075423     0.08600
C571        C  0.32312866  0.14026245  0.94658210     0.09700
S572        S  0.26174695  0.09233691  0.89331708    -0.25000
H573        H  0.28134410  0.10901047  0.80386613     0.19900
S574        S  0.39521708  0.18882015  0.80946599    -0.30700
H575        H  0.37409412  0.17391809  0.89776412     0.10200
C576        C  0.33550844  0.12662347  0.97544305     0.03400
C577        C  0.33534840  0.13101063  0.02167022    -0.13000
C578        C  0.32319376  0.14896712  0.03977961    -0.08700
C579        C  0.31081586  0.16259589  0.01041306     0.06900
C580        C  0.31047938  0.15766889  0.96449532    -0.13800
S581        S  0.35139369  0.10356266  0.95327755    -0.30700
H582        H  0.34489993  0.12057378  0.04380909     0.11100
S583        S  0.29751487  0.18867527  0.02873583    -0.27800
H584        H  0.30151040  0.16867131  0.94228752     0.08400
H585        H  0.39385157  0.16821785  0.77629692     0.26800
H586        H  0.35882518  0.09523564  0.99441803     0.21600
H587        H  0.32308273  0.20571207  0.05737811     0.26900
H588        H  0.27324954  0.08636409  0.93274052     0.15700
C589        C  0.34816567  0.20869959  0.47275034    -0.11500
C590        C  0.33369180  0.18197691  0.44589145     0.15000
C591        C  0.31683818  0.15229663  0.46624104     0.01900
C592        C  0.31384532  0.15006739  0.51258850    -0.15900
C593        C  0.32830762  0.17674033  0.53973192    -0.10700
C594        C  0.34554211  0.20646162  0.51924230     0.08600
C595        C  0.33540931  0.18572587  0.39679260     0.09700
S596        S  0.29928905  0.11628833  0.43507233    -0.25000
H597        H  0.30121094  0.12713818  0.52762847     0.19900
S598        S  0.36379712  0.24250365  0.55014090    -0.30700
H599        H  0.36098519  0.23147425  0.45733566     0.10200
C600        C  0.30873727  0.17896850  0.37144635     0.03400
C601        C  0.31056344  0.17987523  0.32489767    -0.13000
C602        C  0.33860088  0.18763974  0.30273914    -0.08700
C603        C  0.36595181  0.19706319  0.32852230     0.06900
C604        C  0.36394315  0.19556656  0.37509612    -0.13800
S605        S  0.27222337  0.16890541  0.39840185    -0.30700
H606        H  0.28961045  0.17334612  0.30569493     0.11100
S607        S  0.40413731  0.21185897  0.30438065    -0.27800
H608        H  0.38473715  0.20179125  0.39462749     0.08400
H609        H  0.33962638  0.23258096  0.58160992     0.26800
H610        H  0.25480463  0.16503456  0.35946414     0.21600
H611        H  0.39926669  0.22864877  0.27040760     0.26900
H612        H  0.32080558  0.12737050  0.39979463     0.15700
C613        C  0.40630699  0.03658515  0.58570227    -0.11500
C614        C  0.41686978  0.06760196  0.57315539     0.15000
C615        C  0.44344396  0.08315182  0.54565991     0.01900
C616        C  0.45911154  0.06753961  0.53191932    -0.15900
C617        C  0.44868802  0.03644434  0.54458910    -0.10700
C618        C  0.42206333  0.02103384  0.57234765     0.08600
C619        C  0.40108882  0.08369282  0.59228562     0.09700
S620        S  0.45853203  0.12287683  0.52714826    -0.25000
H621        H  0.47944807  0.07971344  0.51081417     0.19900
S622        S  0.40843855  0.98258490  0.59501808    -0.30700
H623        H  0.38631659  0.02481644  0.60756955     0.10200
C624        C  0.37117633  0.07688482  0.57791015     0.03400
C625        C  0.35666977  0.09187510  0.59821970    -0.13000
C626        C  0.37142862  0.11356455  0.63275482    -0.08700
C627        C  0.40123566  0.11985935  0.64749405     0.06900
C628        C  0.41582199  0.10516435  0.62683636    -0.13800
S629        S  0.35200466  0.04993553  0.53266518    -0.30700
H630        H  0.33402466  0.08726762  0.58637016     0.11100
S631        S  0.42107894  0.14502430  0.69393738    -0.27800
H632        H  0.43861299  0.10995219  0.63846948     0.08400
H633        H  0.43859581  0.98834948  0.60573808     0.26800
H634        H  0.32457570  0.05193317  0.53239238     0.21600
H635        H  0.39361284  0.13459091  0.71897793     0.26900
H636        H  0.42972492  0.12217225  0.52704357     0.15700
C637        C  0.06447735  0.42180410  0.95895477    -0.11500
C638        C  0.08895517  0.43796742  0.92869355     0.15000
C639        C  0.09868197  0.46943208  0.91843945     0.01900
C640        C  0.08357803  0.48384058  0.93834468    -0.15900
C641        C  0.05844963  0.46744419  0.96769079    -0.10700
C642        C  0.04942331  0.43624598  0.97896808     0.08600
C643        C  0.10409252  0.42146986  0.90893989     0.09700
S644        S  0.12967947  0.49229032  0.87960054    -0.25000
H645        H  0.09069147  0.50777862  0.92926590     0.19900
S646        S  0.01978915  0.41402950  0.01979766    -0.30700
H647        H  0.05734258  0.39777775  0.96755817     0.10200
C648        C  0.13408390  0.42798519  0.92243435     0.03400
C649        C  0.14761003  0.41199317  0.90242262    -0.13000
C650        C  0.13157868  0.38922752  0.86965233    -0.08700
C651        C  0.10161618  0.38297038  0.85592207     0.06900
C652        C  0.08809481  0.39892167  0.87600185    -0.13800
S653        S  0.15458300  0.45571082  0.96638276    -0.30700
H654        H  0.17036514  0.41646451  0.91339249     0.11100
S655        S  0.08000793  0.35586161  0.81201404    -0.27800
H656        H  0.06513667  0.39411789  0.86539580     0.08400
H657        H  0.02713437  0.43970836  0.04753837     0.26800
H658        H  0.18170866  0.45317481  0.96584306     0.21600
H659        H  0.10642289  0.36168051  0.78700809     0.26900
H660        H  0.12573821  0.46726828  0.85294216     0.15700
C661        C  0.24012407  0.21442219  0.72091283    -0.11500
C662        C  0.25852417  0.24229497  0.74419990     0.15000
C663        C  0.29081888  0.25345040  0.74924046     0.01900
C664        C  0.30402455  0.23693676  0.73019775    -0.15900
C665        C  0.28573912  0.20883714  0.70697656    -0.10700
C666        C  0.25329303  0.19777546  0.70191600     0.08600
C667        C  0.24352678  0.25959620  0.76180143     0.09700
S668        S  0.31642773  0.28824173  0.78031975    -0.25000
H669        H  0.32878984  0.24571325  0.73497187     0.19900
S670        S  0.22746455  0.16337942  0.67047608    -0.30700
H671        H  0.21535351  0.20592274  0.71668093     0.10200
C672        C  0.24945533  0.28819630  0.74297401     0.03400
C673        C  0.23549558  0.30422496  0.76155601    -0.13000
C674        C  0.21534929  0.29213784  0.79828076    -0.08700
C675        C  0.20948862  0.26345023  0.81704582     0.06900
C676        C  0.22332253  0.24735227  0.79834295    -0.13800
S677        S  0.27390277  0.30375724  0.69430996    -0.30700
H678        H  0.23965772  0.32595978  0.74667132     0.11100
S679        S  0.18612053  0.24716171  0.86619828    -0.27800
H680        H  0.21895681  0.22549081  0.81306222     0.08400
H681        H  0.24860888  0.17040055  0.63516812     0.26800
H682        H  0.27198484  0.33113097  0.69051858     0.21600
H683        H  0.19781529  0.27629389  0.88721277     0.26900
H684        H  0.29373351  0.28645754  0.81013252     0.15700
C685        C  0.50713379  0.51432522  0.69842240    -0.11500
C686        C  0.49091683  0.48394037  0.71578565     0.15000
C687        C  0.47564012  0.45850927  0.68617170     0.01900
C688        C  0.47678288  0.46405957  0.64018425    -0.15900
C689        C  0.49319557  0.49451152  0.62264084    -0.10700
C690        C  0.50890601  0.51987713  0.65252638     0.08600
C691        C  0.48994862  0.47993273  0.76493613     0.09700
S692        S  0.45468240  0.41848290  0.70487497    -0.25000
H693        H  0.46495207  0.44432363  0.61782743     0.19900
S694        S  0.53318842  0.55972674  0.63453115    -0.30700
H695        H  0.51909409  0.53395955  0.72097181     0.10200
C696        C  0.51681720  0.48607317  0.78936687     0.03400
C697        C  0.51566579  0.48499040  0.83608597    -0.13000
C698        C  0.48819078  0.47806803  0.85935527    -0.08700
C699        C  0.46078267  0.47003225  0.83434341     0.06900
C700        C  0.46210225  0.47144538  0.78771533    -0.13800
S701        S  0.55274200  0.49565703  0.76100867    -0.30700
H702        H  0.53670134  0.49086609  0.85450230     0.11100
S703        S  0.42329631  0.45759290  0.85942761    -0.27800
H704        H  0.44131578  0.46623890  0.76899450     0.08400
H705        H  0.54821635  0.55223481  0.60119459     0.26800
H706        H  0.57086155  0.49982741  0.79929074     0.21600
H707        H  0.42671029  0.43897128  0.89196554     0.26900
H708        H  0.47302815  0.42284299  0.74291652     0.15700
C709        C  0.48783920  0.50980397  0.19681318    -0.11500
C710        C  0.51779634  0.52781095  0.21514431     0.15000
C711        C  0.54383386  0.54177268  0.18631359     0.01900
C712        C  0.53936766  0.53700495  0.14023542    -0.15900
C713        C  0.50934373  0.51891239  0.12180422    -0.10700
C714        C  0.48333437  0.50495920  0.15089143     0.08600
C715        C  0.52093490  0.52944895  0.26448255     0.09700
S716        S  0.58327679  0.56601076  0.20616106    -0.25000
H717        H  0.55954749  0.54771362  0.11856036     0.19900
S718        S  0.44405306  0.47862158  0.13224777    -0.30700
H719        H  0.46781987  0.49840302  0.21872997     0.10200
C720        C  0.50741782  0.54323927  0.29062587     0.03400
C721        C  0.50783249  0.54114184  0.33720087    -0.13000
C722        C  0.52183737  0.52583619  0.35855159    -0.08700
C723        C  0.53743220  0.51413224  0.33221713     0.06900
C724        C  0.53622267  0.51545665  0.28568680    -0.13800
S725        S  0.48948510  0.56345299  0.26472797    -0.30700
H726        H  0.49617113  0.55050299  0.35697343     0.11100
S727        S  0.55997433  0.49804526  0.35572882    -0.27800
H728        H  0.54716915  0.50534840  0.26579320     0.08400
H729        H  0.45284470  0.46135364  0.10468800     0.26800
H730        H  0.48417611  0.57542585  0.30407603     0.21600
H731        H  0.57133277  0.51889885  0.39184621     0.26900
H732        H  0.57531754  0.57720247  0.24398230     0.15700
C733        C  0.82888229  0.19010085  0.86188410    -0.11500
C734        C  0.85633236  0.19267501  0.87981466     0.15000
C735        C  0.87907880  0.19367504  0.85048681     0.01900
C736        C  0.87316224  0.19035334  0.80457519    -0.15900
C737        C  0.84528794  0.18699289  0.78633719    -0.10700
C738        C  0.82342212  0.18801683  0.81587249     0.08600
C739        C  0.85909857  0.19149441  0.92912800     0.09700
S740        S  0.91611508  0.19908041  0.86955339    -0.25000
H741        H  0.89057933  0.19019919  0.78300801     0.19900
S742        S  0.78780214  0.18624617  0.79779594    -0.30700
H743        H  0.81129104  0.18936155  0.88409795     0.10200
C744        C  0.85876050  0.21409733  0.95721108     0.03400
C745        C  0.85730864  0.20975387  0.00356227    -0.13000
C746        C  0.85647159  0.18333727  0.02302860    -0.08700
C747        C  0.85895276  0.16173509  0.99460420     0.06900
C748        C  0.85982618  0.16594913  0.94823617    -0.13800
S749        S  0.86056354  0.24874488  0.93404970    -0.30700
H750        H  0.85632343  0.22690604  0.02468248     0.11100
S751        S  0.86001715  0.12800538  0.01582525    -0.27800
H752        H  0.86009100  0.14866438  0.92646284     0.08400
H753        H  0.80318491  0.21095225  0.76725692     0.26800
H754        H  0.85708692  0.26106227  0.97435666     0.21600
H755        H  0.86963187  0.12027631  0.97617127     0.26900
H756        H  0.91828794  0.21684415  0.90726025     0.15700
C757        C  0.83011106  0.13663596  0.45127690    -0.11500
C758        C  0.81109978  0.14616054  0.42959023     0.15000
C759        C  0.79167098  0.15337533  0.45530556     0.01900
C760        C  0.79338430  0.15312595  0.50186601    -0.15900
C761        C  0.81363508  0.14513345  0.52393134    -0.10700
C762        C  0.83121288  0.13550637  0.49782676     0.08600
C763        C  0.81312435  0.14947797  0.38033438     0.09700
S764        S  0.76477218  0.16382076  0.43074831    -0.25000
H765        H  0.77933011  0.16009974  0.52088726     0.19900
S766        S  0.85522654  0.12113186  0.52135419    -0.30700
H767        H  0.84448374  0.13031484  0.43171521     0.10200
C768        C  0.82809278  0.17910470  0.35976365     0.03400
C769        C  0.83041860  0.18120591  0.31320529    -0.13000
C770        C  0.81875003  0.15435053  0.28651196    -0.08700
C771        C  0.80354329  0.12463423  0.30719255     0.06900
C772        C  0.80098563  0.12257645  0.35383467    -0.13800
S773        S  0.84556801  0.21430315  0.39288450    -0.30700
H774        H  0.84234721  0.20401722  0.29749817     0.11100
S775        S  0.78624179  0.08922601  0.27455445    -0.27800
H776        H  0.78945338  0.09990309  0.36995705     0.08400
H777        H  0.83347205  0.10333405  0.55455526     0.26800
H778        H  0.85846041  0.23557244  0.35737050     0.21600
H779        H  0.77510383  0.06809892  0.31042678     0.26900
H780        H  0.75934260  0.14639913  0.39153875     0.15700
C781        C  0.13856455  0.31197597  0.63114631    -0.11500
C782        C  0.15210617  0.34025679  0.60760833     0.15000
C783        C  0.16717896  0.36862775  0.63151257     0.01900
C784        C  0.16892484  0.36801431  0.67809279    -0.15900
C785        C  0.15640210  0.33969019  0.70176846    -0.10700
C786        C  0.14090615  0.31130588  0.67755035     0.08600
C787        C  0.15206135  0.33912355  0.55821216     0.09700
S788        S  0.18514621  0.40637995  0.60475285    -0.25000
H789        H  0.18079149  0.38996488  0.69595689     0.19900
S790        S  0.12573833  0.27342433  0.70303578    -0.30700
H791        H  0.12723937  0.29013961  0.61291845     0.10200
C792        C  0.17244709  0.33170552  0.53550642     0.03400
C793        C  0.17182788  0.33049811  0.48889227    -0.13000
C794        C  0.15160607  0.33704263  0.46418224    -0.08700
C795        C  0.13087434  0.34407122  0.48695500     0.06900
C796        C  0.13139835  0.34515919  0.53368463    -0.13800
S797        S  0.20038288  0.32527318  0.56587421    -0.30700
H798        H  0.18803779  0.32557263  0.47143504     0.11100
S799        S  0.10271677  0.35093385  0.45838237    -0.27800
H800        H  0.11549164  0.35054763  0.55107543     0.08400
H801        H  0.15299154  0.28199329  0.72799656     0.26800
H802        H  0.21357314  0.31886057  0.52880819     0.21600
H803        H  0.09849660  0.33135164  0.42199556     0.26900
H804        H  0.19289802  0.39737168  0.56468059     0.15700
C805        C  0.20828688  0.33878000  0.13565543    -0.11500
C806        C  0.19591622  0.35295308  0.10819584     0.15000
C807        C  0.18216610  0.36911625  0.12799013     0.01900
C808        C  0.18003489  0.36966630  0.17446732    -0.15900
C809        C  0.19090279  0.35404697  0.20199462    -0.10700
C810        C  0.20652169  0.33969965  0.18212649     0.08600
C811        C  0.19611607  0.34899640  0.05925119     0.09700
S812        S  0.16605508  0.38876640  0.09603671    -0.25000
H813        H  0.16845925  0.38117675  0.18908217     0.19900
S814        S  0.22564360  0.32313110  0.21411460    -0.30700
H815        H  0.21947045  0.32696340  0.12072061     0.10200
C816        C  0.21636333  0.37351834  0.03090946     0.03400
C817        C  0.21309707  0.36933745  0.98452202    -0.13000
C818        C  0.19021489  0.34088541  0.96563834    -0.08700
C819        C  0.17168431  0.31560802  0.99468858     0.06900
C820        C  0.17456673  0.32012448  0.04080660    -0.13800
S821        S  0.24604447  0.41020908  0.05389934    -0.30700
H822        H  0.22778927  0.38873961  0.96293936     0.11100
S823        S  0.14404991  0.27686969  0.97570579    -0.27800
H824        H  0.15952947  0.30098084  0.06265256     0.08400
H825        H  0.23562321  0.34555283  0.24826592     0.26800
H826        H  0.25903063  0.42496538  0.01311354     0.21600
H827        H  0.16374129  0.27680177  0.94217932     0.26900
H828        H  0.15732351  0.36934051  0.05847966     0.15700
C829        C  0.98050457  0.23177660  0.20496643    -0.11500
C830        C  0.98581580  0.25432505  0.23732956     0.15000
C831        C  0.96180301  0.26082413  0.24755192     0.01900
C832        C  0.93308498  0.24461629  0.22551649    -0.15900
C833        C  0.92730462  0.22132482  0.19408421    -0.10700
C834        C  0.95166521  0.21533501  0.18313204     0.08600
C835        C  0.01698282  0.27132503  0.25868381     0.09700
S836        S  0.96595821  0.28864974  0.28952013    -0.25000
H837        H  0.91455627  0.24927942  0.23460440     0.19900
S838        S  0.94787896  0.18785349  0.14082951    -0.30700
H839        H  0.99914101  0.22716004  0.19640254     0.10200
C840        C  0.02709231  0.25633857  0.28883645     0.03400
C841        C  0.05771315  0.27254537  0.30555820    -0.13000
C842        C  0.07841914  0.30368444  0.29326237    -0.08700
C843        C  0.06764312  0.31894917  0.26415532     0.06900
C844        C  0.03710505  0.30266643  0.24745522    -0.13800
S845        S  0.00073327  0.21674371  0.30662901    -0.30700
H846        H  0.06561537  0.26087269  0.32824738     0.11100
S847        S  0.09202541  0.35838619  0.24460492    -0.27800
H848        H  0.02926233  0.31418496  0.22438325     0.08400
H849        H  0.92897355  0.19417895  0.11250104     0.26800
H850        H  0.02098141  0.21478980  0.33779889     0.21600
H851        H  0.11729607  0.35401846  0.23404384     0.26900
H852        H  0.98595180  0.28367004  0.31743764     0.15700
C853        C  0.36222201  0.45764929  0.44910924    -0.11500
C854        C  0.35253102  0.43165670  0.42134347     0.15000
C855        C  0.37376093  0.42138016  0.41098450     0.01900
C856        C  0.40389814  0.43692102  0.42909778    -0.15900
C857        C  0.41392740  0.46317236  0.45676219    -0.10700
C858        C  0.39241733  0.47327043  0.46728217     0.08600
C859        C  0.32004754  0.41549517  0.40418469     0.09700
S860        S  0.36401955  0.38889919  0.37433552    -0.25000
H861        H  0.41999749  0.42893034  0.42021854     0.19900
S862        S  0.40137422  0.50498037  0.50490935    -0.30700
H863        H  0.34586017  0.46544603  0.45740633     0.10200
C864        C  0.29714981  0.38638769  0.42134646     0.03400
C865        C  0.26685215  0.37167595  0.40332548    -0.13000
C866        C  0.25890225  0.38569233  0.36883433    -0.08700
C867        C  0.28208953  0.41463330  0.35130224     0.06900
C868        C  0.31221281  0.42938001  0.36952879    -0.13800
S869        S  0.30623703  0.36855023  0.46720665    -0.30700
H870        H  0.24902883  0.34965958  0.41701007     0.11100
S871        S  0.27506779  0.43326926  0.30456396    -0.27800
H872        H  0.32992013  0.45155746  0.35596189     0.08400
H873        H  0.41703404  0.49614802  0.53578481     0.26800
H874        H  0.27624596  0.34222155  0.47155556     0.21600
H875        H  0.25445950  0.40529714  0.28253271     0.26900
H876        H  0.34297294  0.39289448  0.34738621     0.15700
C877        C  0.54001837  0.99841524  0.70567389    -0.11500
C878        C  0.51250206  0.98412852  0.73096313     0.15000
C879        C  0.48332228  0.96899362  0.70905436     0.01900
C880        C  0.48219600  0.97008930  0.66274500    -0.15900
C881        C  0.50959167  0.98564002  0.63726956    -0.10700
C882        C  0.53888676  0.99881533  0.65907307     0.08600
C883        C  0.51444218  0.98780051  0.77987876     0.09700
S884        S  0.44661364  0.94873485  0.73837739    -0.25000
H885        H  0.45954442  0.95929944  0.64657988     0.19900
S886        S  0.57543676  0.01561313  0.62949945    -0.30700
H887        H  0.56249688  0.00963800  0.72239596     0.10200
C888        C  0.52407459  0.97113346  0.80758940     0.03400
C889        C  0.52282538  0.97364349  0.85403995    -0.13000
C890        C  0.51184945  0.99230600  0.87323653    -0.08700
C891        C  0.50205662  0.00878240  0.84491031     0.06900
C892        C  0.50415359  0.00688165  0.79887845    -0.13800
S893        S  0.53650442  0.94561235  0.78379643    -0.30700
H894        H  0.53005975  0.96077968  0.87545005     0.11100
S895        S  0.48402754  0.03041345  0.86478749    -0.27800
H896        H  0.49625999  0.01926661  0.77747690     0.08400
H897        H  0.56373454  0.99406979  0.59419479     0.26800
H898        H  0.54257299  0.93528581  0.82427667     0.21600
H899        H  0.46372597  0.00670585  0.89413140     0.26900
H900        H  0.45801683  0.93962651  0.77496402     0.15700
C901        C  0.45913776  0.98078048  0.30524323    -0.11500
C902        C  0.48718016  0.99642693  0.28141024     0.15000
C903        C  0.51542840  0.01508964  0.30442974     0.01900
C904        C  0.51510512  0.01741705  0.35074500    -0.15900
C905        C  0.48719749  0.00106995  0.37505011    -0.10700
C906        C  0.45876205  0.98313551  0.35163007     0.08600
C907        C  0.48615270  0.99427811  0.23237219     0.09700
S908        S  0.55270663  0.03610013  0.27671850    -0.25000
H909        H  0.53712844  0.03102850  0.36804848     0.19900
S910        S  0.42116400  0.96355734  0.37855004    -0.30700
H911        H  0.43735946  0.96701323  0.28747847     0.10200
C912        C  0.48553827  0.96895163  0.21022326     0.03400
C913        C  0.48611930  0.96873251  0.16357998    -0.13000
C914        C  0.48797933  0.99369799  0.13832388    -0.08700
C915        C  0.48872380  0.01917977  0.16125939     0.06900
C916        C  0.48731504  0.01885156  0.20771244    -0.13800
S917        S  0.48540486  0.93760715  0.24146688    -0.30700
H918        H  0.48579346  0.94921264  0.14683526     0.11100
S919        S  0.49249469  0.05340851  0.13409978    -0.27800
H920        H  0.48809929  0.03848061  0.22500928     0.08400
H921        H  0.42887160  0.98704027  0.41057093     0.26800
H922        H  0.48929661  0.92213858  0.20494375     0.21600
H923        H  0.52184958  0.06158975  0.11589294     0.26900
H924        H  0.54569983  0.01460390  0.24200535     0.15700
C925        C  0.70665885  0.07262470  0.07597953    -0.11500
C926        C  0.68490295  0.08108176  0.09000215     0.15000
C927        C  0.69442351  0.10646382  0.11946952     0.01900
C928        C  0.72573124  0.12358952  0.13274876    -0.15900
C929        C  0.74780280  0.11557511  0.11811723    -0.10700
C930        C  0.73798073  0.08974213  0.08915769     0.08600
C931        C  0.65299960  0.06423822  0.07112772     0.09700
S932        S  0.66785566  0.11832016  0.14094027    -0.25000
H933        H  0.73283853  0.14317239  0.15512040     0.19900
S934        S  0.76446372  0.07873477  0.06509210    -0.30700
H935        H  0.69942068  0.05330240  0.05306328     0.10200
C936        C  0.64329606  0.07807216  0.03843195     0.03400
C937        C  0.61236286  0.06196835  0.02302301    -0.13000
C938        C  0.59091913  0.03216195  0.03942175    -0.08700
C939        C  0.60099447  0.01821796  0.07181965     0.06900
C940        C  0.63200703  0.03416901  0.08670437    -0.13800
S941        S  0.67039109  0.11617011  0.01615096    -0.30700
H942        H  0.60476858  0.07268031  0.99829706     0.11100
S943        S  0.57504006  0.98140741  0.09815492    -0.27800
H944        H  0.63949522  0.02366498  0.11190087     0.08400
H945        H  0.78764725  0.10958575  0.05510397     0.26800
H946        H  0.64970617  0.11773163  0.98538041     0.21600
H947        H  0.55123109  0.98863001  0.10540152     0.26900
H948        H  0.64087935  0.08865681  0.13932973     0.15700
C949        C  0.19495499  0.87743792  0.64477040    -0.11500
C950        C  0.18278942  0.85055143  0.61828005     0.15000
C951        C  0.17075929  0.82106821  0.63893744     0.01900
C952        C  0.16999285  0.81900907  0.68536397    -0.15900
C953        C  0.18151861  0.84578373  0.71216228    -0.10700
C954        C  0.19480981  0.87544270  0.69133468     0.08600
C955        C  0.18267214  0.85372143  0.56923929     0.09700
S956        S  0.15541035  0.78511044  0.60798445    -0.25000
H957        H  0.15971540  0.79609431  0.70069361     0.19900
S958        S  0.21282250  0.91157586  0.72200520    -0.30700
H959        H  0.20473020  0.90017998  0.62898737     0.10200
C960        C  0.15487746  0.84519801  0.54575648     0.03400
C961        C  0.15521707  0.84546721  0.49912023    -0.13000
C962        C  0.18278399  0.85395867  0.47505642    -0.08700
C963        C  0.21103167  0.86406742  0.49897018     0.06900
C964        C  0.21055729  0.86381773  0.54574021    -0.13800
S965        S  0.11885538  0.83351560  0.57528146    -0.30700
H966        H  0.13350429  0.83798056  0.48133381     0.11100
S967        S  0.24790413  0.87753526  0.47088584    -0.27800
H968        H  0.23184495  0.87064516  0.56431814     0.08400
H969        H  0.22619963  0.90127982  0.75453604     0.26800
H970        H  0.09944834  0.82602287  0.53762704     0.21600
H971        H  0.26690071  0.88607341  0.50909494     0.26900
H972        H  0.17521412  0.79781379  0.57102171     0.15700
C973        C  0.17162829  0.80438006  0.13941097    -0.11500
C974        C  0.15072707  0.81183508  0.11861938     0.15000
C975        C  0.13192121  0.81943754  0.14504413     0.01900
C976        C  0.13577810  0.82129323  0.19122027    -0.15900
C977        C  0.15773071  0.81527396  0.21227742    -0.10700
C978        C  0.17505907  0.80561307  0.18582300     0.08600
C979        C  0.15077064  0.81385141  0.06942831     0.09700
S980        S  0.10342581  0.82820970  0.12182416    -0.25000
H981        H  0.12199817  0.82840786  0.21072447     0.19900
S982        S  0.20149298  0.79410904  0.20891942    -0.30700
H983        H  0.18573895  0.79803081  0.11924599     0.10200
C984        C  0.16429580  0.84303482  0.04776596     0.03400
C985        C  0.16371136  0.84417412  0.00123702    -0.13000
C986        C  0.15039287  0.81677915  0.97555805    -0.08700
C987        C  0.13663120  0.78749534  0.99744332     0.06900
C988        C  0.13725280  0.78637957  0.04405399    -0.13800
S989        S  0.18347779  0.87892187  0.07932839    -0.30700
H990        H  0.17466869  0.86667411  0.98464223     0.11100
S991        S  0.11702926  0.75086256  0.96805901    -0.27800
H992        H  0.12666690  0.76390297  0.06076849     0.08400
H993        H  0.18206567  0.77791316  0.24514190     0.26800
H994        H  0.19463115  0.89944235  0.04277227     0.21600
H995        H  0.10458973  0.76151273  0.93463367     0.26900
H996        H  0.09695437  0.80979835  0.08344438     0.15700
C997        C  0.36343069  0.95739044  0.94927936    -0.11500
C998        C  0.34669346  0.92518142  0.94088753     0.15000
C999        C  0.36060164  0.90700048  0.95160756     0.01900
C1000       C  0.39134677  0.92157814  0.96759183    -0.15900
C1001       C  0.40840388  0.95395519  0.97556759    -0.10700
C1002       C  0.39336309  0.97166882  0.96812900     0.08600
C1003       C  0.31522912  0.91133293  0.91991060     0.09700
S1004       S  0.34024111  0.86503791  0.94629294    -0.25000
H1005       H  0.40194731  0.90733340  0.97385792     0.19900
S1006       S  0.41018202  0.01218547  0.98322241    -0.30700
H1007       H  0.35285463  0.97149373  0.94172239     0.10200
C1008       C  0.29040622  0.91312312  0.94021591     0.03400
C1009       C  0.26093855  0.89881990  0.91968478    -0.13000
C1010       C  0.25549287  0.88225871  0.87973501    -0.08700
C1011       C  0.28051498  0.88127899  0.85875942     0.06900
C1012       C  0.31004653  0.89589870  0.87890650    -0.13800
S1013       S  0.29535851  0.93147834  0.99385653    -0.30700
H1014       H  0.24154205  0.89912283  0.93601556     0.11100
S1015       S  0.27631413  0.86207264  0.80617709    -0.27800
H1016       H  0.32917061  0.89502538  0.86264890     0.08400
H1017       H  0.41981319  0.00801307  0.02559916     0.26800
H1018       H  0.26594013  0.92946151  0.99538994     0.21600
H1019       H  0.25280207  0.86744753  0.78934991     0.26900
H1020       H  0.31044703  0.86056455  0.95611505     0.15700
C1021       C  0.82366628  0.64699084  0.87698537    -0.11500
C1022       C  0.80888011  0.66250312  0.89441508     0.15000
C1023       C  0.79843218  0.67775362  0.86499728     0.01900
C1024       C  0.80343717  0.67747221  0.81901452    -0.15900
C1025       C  0.81811660  0.66170411  0.80148605    -0.10700
C1026       C  0.82851854  0.64651691  0.83132630     0.08600
C1027       C  0.80671436  0.66357493  0.94360411     0.09700
S1028       S  0.77816702  0.69742972  0.88394010    -0.25000
H1029       H  0.79524903  0.68913235  0.79670035     0.19900
S1030       S  0.85007832  0.62785572  0.81398157    -0.30700
H1031       H  0.83228812  0.63579486  0.89942720     0.10200
C1032       C  0.78815118  0.63626506  0.96846252     0.03400
C1033       C  0.79041327  0.63714379  0.01504394    -0.13000
C1034       C  0.81108514  0.66482190  0.03768314    -0.08700
C1035       C  0.82836293  0.69270340  0.01262449     0.06900
C1036       C  0.82603556  0.69164667  0.96593013    -0.13800
S1037       S  0.76194328  0.60003838  0.94070267    -0.30700
H1038       H  0.77692511  0.61586236  0.03368177     0.11100
S1039       S  0.85329793  0.72989155  0.03915938    -0.27800
H1040       H  0.83997893  0.71249568  0.94651819     0.08400
H1041       H  0.86916258  0.65219579  0.78482608     0.26800
H1042       H  0.74842235  0.58223724  0.97929882     0.21600
H1043       H  0.86493552  0.74780219  0.00015671     0.26900
H1044       H  0.76529361  0.67919388  0.92236298     0.15700
C1045       C  0.81842081  0.63604153  0.37643955    -0.11500
C1046       C  0.84834520  0.65531841  0.39408838     0.15000
C1047       C  0.87369358  0.67147480  0.36461454     0.01900
C1048       C  0.86813494  0.66989901  0.31865815    -0.15900
C1049       C  0.83791052  0.65163210  0.30080610    -0.10700
C1050       C  0.81285151  0.63403825  0.33053038     0.08600
C1051       C  0.85167023  0.65864865  0.44331050     0.09700
S1052       S  0.91359538  0.69427942  0.38346267    -0.25000
H1053       H  0.88782787  0.68307466  0.29649339     0.19900
S1054       S  0.77290776  0.61003434  0.31279497    -0.30700
H1055       H  0.79884582  0.62323491  0.39893728     0.10200
C1056       C  0.85769150  0.68635081  0.46507793     0.03400
C1057       C  0.85712113  0.68710383  0.51181532    -0.13000
C1058       C  0.85020774  0.66060999  0.53773157    -0.08700
C1059       C  0.84500962  0.63301003  0.51545843     0.06900
C1060       C  0.84582239  0.63254024  0.46876555    -0.13800
S1061       S  0.86417231  0.72019658  0.43336745    -0.30700
H1062       H  0.86116951  0.70829911  0.52820023     0.11100
S1063       S  0.83607448  0.59754711  0.54504953    -0.27800
H1064       H  0.84113548  0.61136449  0.45157191     0.08400
H1065       H  0.77319844  0.63349723  0.28597089     0.26800
H1066       H  0.86780974  0.73952445  0.46980542     0.21600
H1067       H  0.83202022  0.57870700  0.50782238     0.26900
H1068       H  0.90966336  0.67750742  0.42305073     0.15700
C1069       C  0.64895124  0.59487251  0.53271645    -0.11500
C1070       C  0.65308075  0.58250986  0.57261797     0.15000
C1071       C  0.62753916  0.55582291  0.59146624     0.01900
C1072       C  0.59896284  0.54121698  0.56906228    -0.15900
C1073       C  0.59477131  0.55337800  0.52909287    -0.10700
C1074       C  0.61999969  0.58060918  0.51077126     0.08600
C1075       C  0.68465555  0.59649524  0.59237130     0.09700
S1076       S  0.62983647  0.53941925  0.64409776    -0.25000
H1077       H  0.57943542  0.52074704  0.58379124     0.19900
S1078       S  0.61706885  0.59755919  0.45904356    -0.30700
H1079       H  0.66856952  0.61529909  0.51813099     0.10200
C1080       C  0.70243771  0.58150909  0.58890917     0.03400
C1081       C  0.73190581  0.59491868  0.60913007    -0.13000
C1082       C  0.74416083  0.62315928  0.63273374    -0.08700
C1083       C  0.72585851  0.63778506  0.63682354     0.06900
C1084       C  0.69657710  0.62455372  0.61602638    -0.13800
S1085       S  0.68800123  0.54578634  0.55745536    -0.30700
H1086       H  0.74586273  0.58378349  0.60537812     0.11100
S1087       S  0.73776428  0.67250146  0.66943393    -0.27800
H1088       H  0.68261788  0.63574689  0.61922726     0.08400
H1089       H  0.59329293  0.56973253  0.44026877     0.26800
H1090       H  0.71357501  0.54129314  0.56526682     0.21600
H1091       H  0.75128097  0.66369436  0.70372070     0.26900
H1092       H  0.65266575  0.56765824  0.66314471     0.15700
C1093       C  0.97689747  0.74562904  0.71624480    -0.11500
C1094       C  0.98353230  0.72980172  0.74940336     0.15000
C1095       C  0.96072369  0.69898886  0.76080370     0.01900
C1096       C  0.93188473  0.68476934  0.73879880    -0.15900
C1097       C  0.92461795  0.70098143  0.70679740    -0.10700
C1098       C  0.94792166  0.73155490  0.69459373     0.08600
C1099       C  0.01490991  0.74570361  0.77006883     0.09700
S1100       S  0.96672101  0.67675587  0.80350848    -0.25000
H1101       H  0.91450025  0.66113215  0.74814641     0.19900
S1102       S  0.94272714  0.75337331  0.65052078    -0.30700
H1103       H  0.99470740  0.76909774  0.70670816     0.10200
C1104       C  0.03857234  0.73980878  0.75570596     0.03400
C1105       C  0.06832506  0.75618022  0.77517176    -0.13000
C1106       C  0.07496309  0.77845446  0.80865475    -0.08700
C1107       C  0.05080130  0.78352585  0.82391241     0.06900
C1108       C  0.02121895  0.76746581  0.80402182    -0.13800
S1109       S  0.03115742  0.71231676  0.71141225    -0.30700
H1110       H  0.08684123  0.75241625  0.76315819     0.11100
S1111       S  0.05587527  0.80927658  0.86949308    -0.27800
H1112       H  0.00285513  0.77164069  0.81541661     0.08400
H1113       H  0.92479085  0.72717220  0.62340956     0.26800
H1114       H  0.06086681  0.71496633  0.71163468     0.21600
H1115       H  0.07647884  0.80281576  0.89358767     0.26900
H1116       H  0.98781995  0.70231207  0.82941432     0.15700
loop_ 
_geom_bond_atom_site_label_1 
_geom_bond_atom_site_label_2 
_geom_bond_distance 
_geom_bond_site_symmetry_2 
_ccdc_geom_bond_type 
O1            V9   1.898       .  S
O1           C11   1.263       .  A
O2            V9   1.898       .  S
O2           C12   1.264       .  A
O3            V9   1.912       .  S
O3           C13   1.269       .  A
O4            V9   1.913       .  S
O4           C14   1.268       .  A
O5           V10   1.896       .  S
O5           C14   1.263       .  A
O6           V10   1.897       .  S
O6           C13   1.263       .  A
O7           V10   1.902       .  S
O7           C12   1.265       .  A
O8           V10   1.899       .  S
O8           C11   1.265       .  A
V9           V10   2.084       .  T
C11        C1082   1.482       .  S
C12        C1097   1.483       .  S
C13        C1058   1.500       .  S
C14        C1025   1.488       .  S
O15          V23   1.905       .  S
O15          C25   1.265       .  A
O16          V23   1.900       .  S
O16          C26   1.265       .  A
O17          V23   1.900       .  S
O17          C27   1.264       .  A
O18          V23   1.899       .  S
O18          C28   1.264       .  A
O19          V24   1.901       .  S
O19          C28   1.265       .  A
O20          V24   1.901       .  S
O20          C27   1.264       .  A
O21          V24   1.902       .  S
O21          C26   1.265       .  A
O22          V24   1.896       .  S
O22          C25   1.264       .  A
V23          V24   2.087       .  T
C25         C986   1.482       .  S
C26         C953   1.484       .  S
C27        C1010   1.475       .  S
C28        C1106   1.479       .  S
O29          V37   1.905   1_556  S
O29          C39   1.266       .  A
O30          V37   1.900       .  S
O30          C40   1.266       .  A
O31          V37   1.904   1_556  S
O31          C41   1.267       .  A
O32          V37   1.903       .  S
O32          C42   1.265   1_565  A
O33          V38   1.895       .  S
O33          C42   1.264       .  A
O34          V38   1.896   1_566  S
O34          C41   1.263       .  A
O35          V38   1.896       .  S
O35          C40   1.263   1_545  A
O36          V38   1.894   1_556  S
O36          C39   1.263   1_545  A
V37          V38   2.083   1_565  T
C39         C890   1.483       .  S
C40         C914   1.492       .  S
C41        C1001   1.492       .  S
C42         C938   1.480       .  S
O43          V51   1.900       .  S
O43          C53   1.264       .  A
O44          V51   1.902       .  S
O44          C54   1.265       .  A
O45          V51   1.901       .  S
O45          C55   1.264       .  A
O46          V51   1.903       .  S
O46          C56   1.266       .  A
O47          V52   1.900       .  S
O47          C56   1.264       .  A
O48          V52   1.899       .  S
O48          C55   1.264       .  A
O49          V52   1.908       .  S
O49          C54   1.266       .  A
O50          V52   1.908       .  S
O50          C53   1.266       .  A
V51          V52   2.086       .  T
C53         C794   1.480       .  S
C54         C809   1.488       .  S
C55         C866   1.478       .  S
C56         C842   1.485       .  S
O57          V65   1.906       .  S
O57          C67   1.265       .  A
O58          V65   1.906       .  S
O58          C68   1.266       .  A
O59          V65   1.897       .  S
O59          C69   1.263       .  A
O60          V65   1.899       .  S
O60          C70   1.264       .  A
O61          V66   1.898       .  S
O61          C70   1.265       .  A
O62          V66   1.901       .  S
O62          C69   1.265       .  A
O63          V66   1.903       .  S
O63          C68   1.266       .  A
O64          V66   1.905       .  S
O64          C67   1.267       .  A
V65          V66   2.084       .  T
C67         C746   1.500       .  S
C68         C770   1.488       .  S
C69         C929   1.481       .  S
C70         C833   1.480       .  S
O71          V79   1.906       .  S
O71          C81   1.266       .  A
O72          V79   1.905       .  S
O72          C82   1.266       .  A
O73          V79   1.899       .  S
O73          C83   1.265       .  A
O74          V79   1.895       .  S
O74          C84   1.263       .  A
O75          V80   1.901       .  S
O75          C84   1.264       .  A
O76          V80   1.904       .  S
O76          C83   1.266       .  A
O77          V80   1.906       .  S
O77          C82   1.266       .  A
O78          V80   1.902       .  S
O78          C81   1.265       .  A
V79          V80   2.085       .  T
C81         C722   1.489       .  S
C82         C689   1.489       .  S
C83         C857   1.489       .  S
C84        C1073   1.469       .  S
O85          V93   1.907       .  S
O85          C95   1.267       .  A
O86          V93   1.908       .  S
O86          C96   1.267       .  A
O87          V93   1.896       .  S
O87          C97   1.264       .  A
O88          V93   1.896       .  S
O88          C98   1.263       .  A
O89          V94   1.904       .  S
O89          C98   1.265       .  A
O90          V94   1.907       .  S
O90          C97   1.266       .  A
O91          V94   1.903       .  S
O91          C96   1.265       .  A
O92          V94   1.903       .  S
O92          C95   1.265       .  A
V93          V94   2.084       .  T
C95         C785   1.491       .  S
C96         C818   1.496       .  S
C97         C674   1.481       .  S
C98         C650   1.477       .  S
O99         V107   1.899       .  S
O99         C109   1.264       .  A
O100        V107   1.898       .  S
O100        C110   1.263       .  A
O101        V107   1.901       .  S
O101        C111   1.266       .  A
O102        V107   1.903       .  S
O102        C112   1.265       .  A
O103        V108   1.899       .  S
O103        C112   1.264       .  A
O104        V108   1.902       .  S
O104        C111   1.264       .  A
O105        V108   1.906       .  S
O105        C110   1.267       .  A
O106        V108   1.911       .  S
O106        C109   1.268       .  A
V107        V108   2.083       .  T
C109        C569   1.496       .  S
C110        C593   1.486       .  S
C111        C665   1.490       .  S
C112        C626   1.483       .  S
O113        V121   1.897   1_456  S
O113        C123   1.264       .  A
O114        V121   1.898       .  S
O114        C124   1.265       .  A
O115        V121   1.899   1_556  S
O115        C125   1.265   1_655  A
O116        V121   1.900       .  S
O116        C126   1.264   1_655  A
O117        V122   1.901       .  S
O117        C126   1.265       .  A
O118        V122   1.905   1_556  S
O118        C125   1.265       .  A
O119        V122   1.904       .  S
O119        C124   1.265   1_455  A
O120        V122   1.901   1_556  S
O120        C123   1.265       .  A
V121        V122   2.085   1_655  T
C123        C641   1.480       .  S
C124        C554   1.488       .  S
C125        C497   1.486       .  S
C126        C530   1.483       .  S
O127        V135   1.904       .  S
O127        C137   1.266       .  A
O128        V135   1.899       .  S
O128        C138   1.264       .  A
O129        V135   1.896       .  S
O129        C139   1.264       .  A
O130        V135   1.898       .  S
O130        C140   1.264       .  A
O131        V136   1.905       .  S
O131        C140   1.266       .  A
O132        V136   1.906       .  S
O132        C139   1.266       .  A
O133        V136   1.894       .  S
O133        C138   1.264       .  A
O134        V136   1.892       .  S
O134        C137   1.263       .  A
V135        V136   2.084       .  T
C137        C482   1.483       .  S
C138        C458   1.486       .  S
C139        C401   1.488       .  S
C140        C425   1.482       .  S
O141        V149   1.902       .  S
O141        C151   1.265       .  A
O142        V149   1.900       .  S
O142        C152   1.264       .  A
O143        V149   1.898       .  S
O143        C153   1.264       .  A
O144        V149   1.899       .  S
O144        C154   1.264       .  A
O145        V150   1.898       .  S
O145        C154   1.264       .  A
O146        V150   1.896       .  S
O146        C153   1.263       .  A
O147        V150   1.907       .  S
O147        C152   1.268       .  A
O148        V150   1.907       .  S
O148        C151   1.266       .  A
V149        V150   2.085       .  T
C151       C1049   1.492       .  S
C152       C1034   1.493       .  S
C153        C449   1.472       .  S
C154        C545   1.476       .  S
O155        V163   1.898       .  S
O155        C165   1.264       .  A
O156        V163   1.902       .  S
O156        C166   1.265   1_565  A
O157        V163   1.894       .  S
O157        C167   1.263   1_565  A
O158        V163   1.892       .  S
O158        C168   1.263       .  A
O159        V164   1.905       .  S
O159        C168   1.266   1_545  A
O160        V164   1.902       .  S
O160        C167   1.266       .  A
O161        V164   1.902       .  S
O161        C166   1.265       .  A
O162        V164   1.897   1_565  S
O162        C165   1.264       .  A
V163        V164   2.086   1_565  T
C165        C473   1.475       .  S
C166        C617   1.485       .  S
C167        C905   1.483       .  S
C168        C881   1.480       .  S
O169        V177   1.898       .  S
O169        C179   1.265       .  A
O170        V177   1.904       .  S
O170        C180   1.265       .  A
O171        V177   1.901       .  S
O171        C181   1.265       .  A
O172        V177   1.899       .  S
O172        C182   1.264       .  A
O173        V178   1.898       .  S
O173        C182   1.264       .  A
O174        V178   1.898       .  S
O174        C181   1.264       .  A
O175        V178   1.907       .  S
O175        C180   1.266       .  A
O176        V178   1.906       .  S
O176        C179   1.266       .  A
V177        V178   2.085       .  T
C179        C602   1.490       .  S
C180        C578   1.489       .  S
C181        C362   1.480       .  S
C182        C386   1.477       .  S
O183        V191   1.904   1_554  S
O183        C193   1.266       .  A
O184        V191   1.907       .  S
O184        C194   1.266       .  A
O185        V191   1.900   1_554  S
O185        C195   1.265       .  A
O186        V191   1.898       .  S
O186        C196   1.263       .  A
O187        V192   1.899       .  S
O187        C196   1.264       .  A
O188        V192   1.899   1_554  S
O188        C195   1.264       .  A
O189        V192   1.903       .  S
O189        C194   1.266       .  A
O190        V192   1.904   1_554  S
O190        C193   1.266       .  A
V191        V192   2.084       .  T
C193        C713   1.488       .  S
C194        C698   1.496       .  S
C195        C377   1.482       .  S
C196        C329   1.475       .  S
O197        V205   1.898       .  S
O197        C207   1.265       .  A
O198        V205   1.894       .  S
O198        C208   1.264       .  A
O199        V205   1.900       .  S
O199        C209   1.265       .  A
O200        V205   1.902       .  S
O200        C210   1.265       .  A
O201        V206   1.896       .  S
O201        C210   1.263       .  A
O202        V206   1.895       .  S
O202        C209   1.263       .  A
O203        V206   1.909       .  S
O203        C208   1.267       .  A
O204        V206   1.906       .  S
O204        C207   1.266       .  A
V205        V206   2.084       .  T
C207        C962   1.493       .  S
C208        C977   1.488       .  S
C209        C305   1.477       .  S
C210        C353   1.474       .  S
O211        V219   1.905       .  S
O211        C221   1.266   1_655  A
O212        V219   1.906       .  S
O212        C222   1.266   1_655  A
O213        V219   1.897       .  S
O213        C223   1.263       .  A
O214        V219   1.893   1_455  S
O214        C224   1.263       .  A
O215        V220   1.901       .  S
O215        C224   1.265       .  A
O216        V220   1.900       .  S
O216        C223   1.265   1_455  A
O217        V220   1.897       .  S
O217        C222   1.264       .  A
O218        V220   1.897       .  S
O218        C221   1.264       .  A
V219        V220   2.086   1_655  T
C221        C506   1.487       .  S
C222        C521   1.487       .  S
C223        C281   1.478       .  S
C224        C314   1.476       .  S
O225        V233   1.910       .  S
O225        C235   1.267       .  A
O226        V233   1.906       .  S
O226        C236   1.267       .  A
O227        V233   1.897       .  S
O227        C237   1.263       .  A
O228        V233   1.898       .  S
O228        C238   1.264       .  A
O229        V234   1.901       .  S
O229        C238   1.264       .  A
O230        V234   1.902       .  S
O230        C237   1.265       .  A
O231        V234   1.902       .  S
O231        C236   1.265       .  A
O232        V234   1.901       .  S
O232        C235   1.266       .  A
V233        V234   2.084       .  T
C235        C737   1.500       .  S
C236        C761   1.495       .  S
C237        C257   1.476       .  S
C238        C290   1.477       .  S
O239        V247   1.900       .  S
O239        C249   1.264       .  A
O240        V247   1.899       .  S
O240        C250   1.265       .  A
O241        V247   1.900       .  S
O241        C251   1.264       .  A
O242        V247   1.900       .  S
O242        C252   1.264       .  A
O243        V248   1.893       .  S
O243        C252   1.263       .  A
O244        V248   1.894       .  S
O244        C251   1.263       .  A
O245        V248   1.904       .  S
O245        C250   1.266       .  A
O246        V248   1.903       .  S
O246        C249   1.266       .  A
V247        V248   2.085       .  T
C249        C410   1.486       .  S
C250        C434   1.490       .  S
C251        C266   1.477       .  S
C252        C338   1.479       .  S
C253        C254   1.401       .  A
C253        C258   1.397       .  A
C253        H263   1.085       .  S
C254        C259   1.477   1_545  S
C254        C255   1.412       .  A
C255        C256   1.401       .  A
C255        S260   1.805   1_545  S
C256        C257   1.405       .  A
C256        H261   1.084       .  S
C257        C258   1.414       .  A
C258        S262   1.802       .  S
C259        C264   1.407       .  A
C259        C268   1.402       .  A
S260        H276   1.405       .  S
S262        H273   1.406       .  S
C264        C265   1.400       .  A
C264        S269   1.807       .  S
C265        C266   1.405       .  A
C265        H270   1.085       .  S
C266        C267   1.414       .  A
C267        C268   1.400       .  A
C267        S271   1.803       .  S
C268        H272   1.086       .  S
S269        H274   1.407       .  S
S271        H275   1.408       .  S
C277        C278   1.401       .  A
C277        C282   1.399       .  A
C277        H287   1.084       .  S
C278        C283   1.479       .  S
C278        C279   1.412       .  A
C279        C280   1.399       .  A
C279        S284   1.804       .  S
C280        C281   1.404       .  A
C280        H285   1.083       .  S
C281        C282   1.416       .  A
C282        S286   1.803       .  S
C283        C288   1.411       .  A
C283        C292   1.400       .  A
S284        H300   1.406       .  S
S286        H297   1.407       .  S
C288        C289   1.404       .  A
C288        S293   1.807       .  S
C289        C290   1.404       .  A
C289        H294   1.081       .  S
C290        C291   1.415       .  A
C291        C292   1.398       .  A
C291        S295   1.801       .  S
C292        H296   1.081       .  S
S293        H298   1.406       .  S
S295        H299   1.405       .  S
C301        C302   1.401       .  A
C301        C306   1.398       .  A
C301        H311   1.083       .  S
C302        C307   1.480       .  S
C302        C303   1.413       .  A
C303        C304   1.399       .  A
C303        S308   1.804       .  S
C304        C305   1.404       .  A
C304        H309   1.082       .  S
C305        C306   1.416       .  A
C306        S310   1.803       .  S
C307        C312   1.410       .  A
C307        C316   1.403       .  A
S308        H324   1.406       .  S
S310        H321   1.407       .  S
C312        C313   1.403       .  A
C312        S317   1.807       .  S
C313        C314   1.405       .  A
C313        H318   1.078       .  S
C314        C315   1.414       .  A
C315        C316   1.398       .  A
C315        S319   1.804       .  S
C316        H320   1.078       .  S
S317        H322   1.407       .  S
S319        H323   1.408       .  S
C325        C326   1.401       .  A
C325        C330   1.396       .  A
C325        H335   1.083       .  S
C326        C331   1.475       .  S
C326        C327   1.411       .  A
C327        C328   1.400       .  A
C327        S332   1.804       .  S
C328        C329   1.404       .  A
C328        H333   1.083       .  S
C329        C330   1.414       .  A
C330        S334   1.802       .  S
C331        C336   1.407       .  A
C331        C340   1.401       .  A
S332        H348   1.405       .  S
S334        H345   1.405       .  S
C336        C337   1.399       .  A
C336        S341   1.807       .  S
C337        C338   1.406       .  A
C337        H342   1.084       .  S
C338        C339   1.415       .  A
C339        C340   1.400       .  A
C339        S343   1.802       .  S
C340        H344   1.085       .  S
S341        H346   1.406       .  S
S343        H347   1.408       .  S
C349        C350   1.400       .  A
C349        C354   1.397       .  A
C349        H359   1.086       .  S
C350        C355   1.476   1_565  S
C350        C351   1.413       .  A
C351        C352   1.400       .  A
C351        S356   1.805   1_565  S
C352        C353   1.403       .  A
C352        H357   1.085       .  S
C353        C354   1.413       .  A
C354        S358   1.801       .  S
C355        C360   1.408       .  A
C355        C364   1.399       .  A
S356        H372   1.404       .  S
S358        H369   1.405       .  S
C360        C361   1.403       .  A
C360        S365   1.806       .  S
C361        C362   1.405       .  A
C361        H366   1.083       .  S
C362        C363   1.417       .  A
C363        C364   1.398       .  A
C363        S367   1.801       .  S
C364        H368   1.083       .  S
S365        H370   1.407       .  S
S367        H371   1.405       .  S
C373        C374   1.401       .  A
C373        C378   1.398       .  A
C373        H383   1.085       .  S
C374        C379   1.481       .  S
C374        C375   1.412       .  A
C375        C376   1.401       .  A
C375        S380   1.804       .  S
C376        C377   1.405       .  A
C376        H381   1.084       .  S
C377        C378   1.417       .  A
C378        S382   1.802       .  S
C379        C384   1.409       .  A
C379        C388   1.402       .  A
S380        H396   1.406       .  S
S382        H393   1.407       .  S
C384        C385   1.402       .  A
C384        S389   1.807       .  S
C385        C386   1.404       .  A
C385        H390   1.083       .  S
C386        C387   1.414       .  A
C387        C388   1.400       .  A
C387        S391   1.803       .  S
C388        H392   1.085       .  S
S389        H394   1.407       .  S
S391        H395   1.408       .  S
C397        C398   1.404       .  A
C397        C402   1.402       .  A
C397        H407   1.083       .  S
C398        C403   1.486       .  S
C398        C399   1.411       .  A
C399        C400   1.399       .  A
C399        S404   1.804       .  S
C400        C401   1.408       .  A
C400        H405   1.082       .  S
C401        C402   1.416       .  A
C402        S406   1.802       .  S
C403        C408   1.410       .  A
C403        C412   1.402       .  A
S404        H420   1.406       .  S
S406        H417   1.408       .  S
C408        C409   1.406       .  A
C408        S413   1.806       .  S
C409        C410   1.407       .  A
C409        H414   1.083       .  S
C410        C411   1.417       .  A
C411        C412   1.399       .  A
C411        S415   1.802       .  S
C412        H416   1.085       .  S
S413        H418   1.407       .  S
S415        H419   1.407       .  S
C421        C422   1.403       .  A
C421        C426   1.403       .  A
C421        H431   1.084       .  S
C422        C427   1.483       .  S
C422        C423   1.413       .  A
C423        C424   1.399       .  A
C423        S428   1.806       .  S
C424        C425   1.405       .  A
C424        H429   1.084       .  S
C425        C426   1.415       .  A
C426        S430   1.802       .  S
C427        C432   1.408       .  A
C427        C436   1.402       .  A
S428        H444   1.405       .  S
S430        H441   1.408       .  S
C432        C433   1.402   1_554  A
C432        S437   1.807       .  S
C433        C434   1.408       .  A
C433        H438   1.082       .  S
C434        C435   1.418       .  A
C435        C436   1.402   1_556  A
C435        S439   1.802       .  S
C436        H440   1.084       .  S
S437        H442   1.407       .  S
S439        H443   1.408       .  S
C445        C446   1.404       .  A
C445        C450   1.399       .  A
C445        H455   1.082       .  S
C446        C451   1.477       .  S
C446        C447   1.410       .  A
C447        C448   1.397       .  A
C447        S452   1.804       .  S
C448        C449   1.403       .  A
C448        H453   1.081       .  S
C449        C450   1.412       .  A
C450        S454   1.804       .  S
C451        C456   1.407       .  A
C451        C460   1.399       .  A
S452        H468   1.406       .  S
S454        H465   1.407       .  S
C456        C457   1.402       .  A
C456        S461   1.807       .  S
C457        C458   1.409       .  A
C457        H462   1.081       .  S
C458        C459   1.419       .  A
C459        C460   1.397       .  A
C459        S463   1.801       .  S
C460        H464   1.083       .  S
S461        H466   1.407       .  S
S463        H467   1.407       .  S
C469        C470   1.402       .  A
C469        C474   1.399       .  A
C469        H479   1.084       .  S
C470        C475   1.477       .  S
C470        C471   1.412       .  A
C471        C472   1.399       .  A
C471        S476   1.805       .  S
C472        C473   1.405       .  A
C472        H477   1.084       .  S
C473        C474   1.413       .  A
C474        S478   1.803       .  S
C475        C480   1.406       .  A
C475        C484   1.402       .  A
S476        H492   1.405       .  S
S478        H489   1.408       .  S
C480        C481   1.401       .  A
C480        S485   1.807       .  S
C481        C482   1.408       .  A
C481        H486   1.083       .  S
C482        C483   1.416       .  A
C483        C484   1.400       .  A
C483        S487   1.802       .  S
C484        H488   1.085       .  S
S485        H490   1.407       .  S
S487        H491   1.407       .  S
C493        C494   1.402       .  A
C493        C498   1.403       .  A
C493        H503   1.084       .  S
C494        C499   1.481       .  S
C494        C495   1.411   1_455  A
C495        C496   1.398       .  A
C495        S500   1.806       .  S
C496        C497   1.406   1_655  A
C496        H501   1.085       .  S
C497        C498   1.417       .  A
C498        S502   1.799       .  S
C499        C504   1.408   1_455  A
C499        C508   1.400       .  A
S500        H516   1.405   1_655  S
S502        H513   1.404       .  S
C504        C505   1.404       .  A
C504        S509   1.806       .  S
C505        C506   1.407   1_655  A
C505        H510   1.082       .  S
C506        C507   1.419       .  A
C507        C508   1.400       .  A
C507        S511   1.802       .  S
C508        H512   1.083       .  S
S509        H514   1.407       .  S
S511        H515   1.408       .  S
C517        C518   1.403   1_655  A
C517        C522   1.402       .  A
C517        H527   1.080       .  S
C518        C523   1.482       .  S
C518        C519   1.410       .  A
C519        C520   1.400       .  A
C519        S524   1.804       .  S
C520        C521   1.408       .  A
C520        H525   1.083       .  S
C521        C522   1.417   1_455  A
C522        S526   1.802       .  S
C523        C528   1.409       .  A
C523        C532   1.401       .  A
S524        H540   1.406       .  S
S526        H537   1.408       .  S
C528        C529   1.406       .  A
C528        S533   1.806   1_455  S
C529        C530   1.408       .  A
C529        H534   1.079   1_455  S
C530        C531   1.416       .  A
C531        C532   1.398       .  A
C531        S535   1.802       .  S
C532        H536   1.081       .  S
S533        H538   1.407       .  S
S535        H539   1.408       .  S
C541        C542   1.403       .  A
C541        C546   1.397       .  A
C541        H551   1.085       .  S
C542        C547   1.484       .  S
C542        C543   1.413       .  A
C543        C544   1.400       .  A
C543        S548   1.804       .  S
C544        C545   1.404       .  A
C544        H549   1.085       .  S
C545        C546   1.415       .  A
C546        S550   1.803       .  S
C547        C552   1.409       .  A
C547        C556   1.402       .  A
S548        H564   1.406       .  S
S550        H561   1.405       .  S
C552        C553   1.401       .  A
C552        S557   1.808       .  S
C553        C554   1.408       .  A
C553        H558   1.084       .  S
C554        C555   1.418       .  A
C555        C556   1.401       .  A
C555        S559   1.800   1_655  S
C556        H560   1.086       .  S
S557        H562   1.406       .  S
S559        H563   1.403   1_554  S
C565        C566   1.400       .  A
C565        C570   1.401       .  A
C565        H575   1.084       .  S
C566        C571   1.486       .  S
C566        C567   1.411       .  A
C567        C568   1.404       .  A
C567        S572   1.803       .  S
C568        C569   1.410       .  A
C568        H573   1.083       .  S
C569        C570   1.422       .  A
C570        S574   1.802       .  S
C571        C576   1.409       .  A
C571        C580   1.401       .  A
S572        H588   1.406       .  S
S574        H585   1.404       .  S
C576        C577   1.408   1_556  A
C576        S581   1.805       .  S
C577        C578   1.408       .  A
C577        H582   1.082       .  S
C578        C579   1.418       .  A
C579        C580   1.401   1_554  A
C579        S583   1.802       .  S
C580        H584   1.084       .  S
S581        H586   1.407       .  S
S583        H587   1.407       .  S
C589        C590   1.402       .  A
C589        C594   1.403       .  A
C589        H599   1.081       .  S
C590        C595   1.484       .  S
C590        C591   1.413       .  A
C591        C592   1.400       .  A
C591        S596   1.805       .  S
C592        C593   1.406       .  A
C592        H597   1.082       .  S
C593        C594   1.418       .  A
C594        S598   1.802       .  S
C595        C600   1.408       .  A
C595        C604   1.403       .  A
S596        H612   1.406       .  S
S598        H609   1.407       .  S
C600        C601   1.402       .  A
C600        S605   1.808       .  S
C601        C602   1.408       .  A
C601        H606   1.083       .  S
C602        C603   1.418       .  A
C603        C604   1.403       .  A
C603        S607   1.802       .  S
C604        H608   1.085       .  S
S605        H610   1.406       .  S
S607        H611   1.408       .  S
C613        C614   1.401       .  A
C613        C618   1.400       .  A
C613        H623   1.083       .  S
C614        C619   1.482       .  S
C614        C615   1.411       .  A
C615        C616   1.402       .  A
C615        S620   1.804       .  S
C616        C617   1.407       .  A
C616        H621   1.082       .  S
C617        C618   1.417       .  A
C618        S622   1.801   1_545  S
C619        C624   1.408       .  A
C619        C628   1.402       .  A
S620        H636   1.406       .  S
S622        H633   1.406       .  S
C624        C625   1.404       .  A
C624        S629   1.807       .  S
C625        C626   1.407       .  A
C625        H630   1.083       .  S
C626        C627   1.414       .  A
C627        C628   1.400       .  A
C627        S631   1.800       .  S
C628        H632   1.085       .  S
S629        H634   1.407       .  S
S631        H635   1.406       .  S
C637        C638   1.402       .  A
C637        C642   1.400       .  A
C637        H647   1.087       .  S
C638        C643   1.480       .  S
C638        C639   1.413       .  A
C639        C640   1.399       .  A
C639        S644   1.805       .  S
C640        C641   1.405       .  A
C640        H645   1.087       .  S
C641        C642   1.415       .  A
C642        S646   1.803   1_556  S
C643        C648   1.408       .  A
C643        C652   1.403       .  A
S644        H660   1.405       .  S
S646        H657   1.408       .  S
C648        C649   1.402       .  A
C648        S653   1.807       .  S
C649        C650   1.405       .  A
C649        H654   1.082       .  S
C650        C651   1.413       .  A
C651        C652   1.401       .  A
C651        S655   1.803       .  S
C652        H656   1.083       .  S
S653        H658   1.407       .  S
S655        H659   1.407       .  S
C661        C662   1.402       .  A
C661        C666   1.402       .  A
C661        H671   1.084       .  S
C662        C667   1.482       .  S
C662        C663   1.411       .  A
C663        C664   1.399       .  A
C663        S668   1.805       .  S
C664        C665   1.407       .  A
C664        H669   1.084       .  S
C665        C666   1.419       .  A
C666        S670   1.802       .  S
C667        C672   1.409       .  A
C667        C676   1.403       .  A
S668        H684   1.405       .  S
S670        H681   1.407       .  S
C672        C673   1.402       .  A
C672        S677   1.807       .  S
C673        C674   1.405       .  A
C673        H678   1.083       .  S
C674        C675   1.414       .  A
C675        C676   1.401       .  A
C675        S679   1.800       .  S
C676        H680   1.084       .  S
S677        H682   1.407       .  S
S679        H683   1.406       .  S
C685        C686   1.402       .  A
C685        C690   1.400       .  A
C685        H695   1.086       .  S
C686        C691   1.488       .  S
C686        C687   1.413       .  A
C687        C688   1.404       .  A
C687        S692   1.803       .  S
C688        C689   1.407       .  A
C688        H693   1.085       .  S
C689        C690   1.418       .  A
C690        S694   1.802       .  S
C691        C696   1.409       .  A
C691        C700   1.402       .  A
S692        H708   1.406       .  S
S694        H705   1.405       .  S
C696        C697   1.406       .  A
C696        S701   1.807       .  S
C697        C698   1.410       .  A
C697        H702   1.080       .  S
C698        C699   1.419       .  A
C699        C700   1.403       .  A
C699        S703   1.801       .  S
C700        H704   1.082       .  S
S701        H706   1.407       .  S
S703        H707   1.407       .  S
C709        C710   1.403       .  A
C709        C714   1.400       .  A
C709        H719   1.084       .  S
C710        C715   1.489       .  S
C710        C711   1.413       .  A
C711        C712   1.404       .  A
C711        S716   1.803       .  S
C712        C713   1.407       .  A
C712        H717   1.083       .  S
C713        C714   1.417       .  A
C714        S718   1.802       .  S
C715        C720   1.410       .  A
C715        C724   1.404       .  A
S716        H732   1.406       .  S
S718        H729   1.407       .  S
C720        C721   1.405       .  A
C720        S725   1.807       .  S
C721        C722   1.407       .  A
C721        H726   1.081       .  S
C722        C723   1.416       .  A
C723        C724   1.403       .  A
C723        S727   1.802       .  S
C724        H728   1.083       .  S
S725        H730   1.407       .  S
S727        H731   1.407       .  S
C733        C734   1.403       .  A
C733        C738   1.403       .  A
C733        H743   1.083       .  S
C734        C739   1.492       .  S
C734        C735   1.411       .  A
C735        C736   1.403       .  A
C735        S740   1.804       .  S
C736        C737   1.411       .  A
C736        H741   1.082       .  S
C737        C738   1.421       .  A
C738        S742   1.800       .  S
C739        C744   1.409       .  A
C739        C748   1.402       .  A
S740        H756   1.406       .  S
S742        H753   1.408       .  S
C744        C745   1.406   1_556  A
C744        S749   1.807       .  S
C745        C746   1.411       .  A
C745        H750   1.081       .  S
C746        C747   1.422   1_554  A
C747        C748   1.406       .  A
C747        S751   1.808   1_556  S
C748        H752   1.083       .  S
S749        H754   1.407       .  S
S751        H755   1.407   1_554  S
C757        C758   1.402       .  A
C757        C762   1.402       .  A
C757        H767   1.083       .  S
C758        C763   1.487       .  S
C758        C759   1.412       .  A
C759        C760   1.402       .  A
C759        S764   1.804       .  S
C760        C761   1.409       .  A
C760        H765   1.082       .  S
C761        C762   1.419       .  A
C762        S766   1.802       .  S
C763        C768   1.410       .  A
C763        C772   1.403       .  A
S764        H780   1.406       .  S
S766        H777   1.408       .  S
C768        C769   1.404       .  A
C768        S773   1.808       .  S
C769        C770   1.406       .  A
C769        H774   1.084       .  S
C770        C771   1.415       .  A
C771        C772   1.407       .  A
C771        S775   1.807       .  S
C772        H776   1.084       .  S
S773        H778   1.407       .  S
S775        H779   1.407       .  S
C781        C782   1.402       .  A
C781        C786   1.401       .  A
C781        H791   1.085       .  S
C782        C787   1.486       .  S
C782        C783   1.413       .  A
C783        C784   1.404       .  A
C783        S788   1.805       .  S
C784        C785   1.407       .  A
C784        H789   1.084       .  S
C785        C786   1.419       .  A
C786        S790   1.802       .  S
C787        C792   1.410       .  A
C787        C796   1.405       .  A
S788        H804   1.404       .  S
S790        H801   1.407       .  S
C792        C793   1.402       .  A
C792        S797   1.808       .  S
C793        C794   1.404       .  A
C793        H798   1.083       .  S
C794        C795   1.414       .  A
C795        C796   1.406       .  A
C795        S799   1.803       .  S
C796        H800   1.083       .  S
S797        H802   1.407       .  S
S799        H803   1.407       .  S
C805        C806   1.402       .  A
C805        C810   1.402       .  A
C805        H815   1.083       .  S
C806        C811   1.486       .  S
C806        C807   1.414       .  A
C807        C808   1.403       .  A
C807        S812   1.806       .  S
C808        C809   1.406       .  A
C808        H813   1.082       .  S
C809        C810   1.416       .  A
C810        S814   1.803       .  S
C811        C816   1.408       .  A
C811        C820   1.400       .  A
S812        H828   1.404       .  S
S814        H825   1.408       .  S
C816        C817   1.407   1_554  A
C816        S821   1.806       .  S
C817        C818   1.411       .  A
C817        H822   1.082       .  S
C818        C819   1.420       .  A
C819        C820   1.400   1_556  A
C819        S823   1.801       .  S
C820        H824   1.084       .  S
S821        H826   1.407       .  S
S823        H827   1.404       .  S
C829        C830   1.404       .  A
C829        C834   1.401       .  A
C829        H839   1.085       .  S
C830        C835   1.481   1_655  S
C830        C831   1.410       .  A
C831        C832   1.398       .  A
C831        S836   1.803       .  S
C832        C833   1.406       .  A
C832        H837   1.085       .  S
C833        C834   1.415       .  A
C834        S838   1.803       .  S
C835        C840   1.408       .  A
C835        C844   1.401       .  A
S836        H852   1.406       .  S
S838        H849   1.407       .  S
C840        C841   1.403       .  A
C840        S845   1.806       .  S
C841        C842   1.406       .  A
C841        H846   1.082       .  S
C842        C843   1.419       .  A
C843        C844   1.400       .  A
C843        S847   1.802       .  S
C844        H848   1.082       .  S
S845        H850   1.406       .  S
S847        H851   1.406       .  S
C853        C854   1.402       .  A
C853        C858   1.402       .  A
C853        H863   1.085       .  S
C854        C859   1.482       .  S
C854        C855   1.410       .  A
C855        C856   1.399       .  A
C855        S860   1.805       .  S
C856        C857   1.408       .  A
C856        H861   1.084       .  S
C857        C858   1.418       .  A
C858        S862   1.802       .  S
C859        C864   1.410       .  A
C859        C868   1.402       .  A
S860        H876   1.405       .  S
S862        H873   1.408       .  S
C864        C865   1.404       .  A
C864        S869   1.807       .  S
C865        C866   1.405       .  A
C865        H870   1.082       .  S
C866        C867   1.413       .  A
C867        C868   1.400       .  A
C867        S871   1.803       .  S
C868        H872   1.084       .  S
S869        H874   1.407       .  S
S871        H875   1.408       .  S
C877        C878   1.403       .  A
C877        C882   1.402       .  A
C877        H887   1.085   1_565  S
C878        C883   1.479       .  S
C878        C879   1.411       .  A
C879        C880   1.395       .  A
C879        S884   1.805       .  S
C880        C881   1.404       .  A
C880        H885   1.084       .  S
C881        C882   1.415       .  A
C882        S886   1.802   1_565  S
C883        C888   1.409       .  A
C883        C892   1.399   1_565  A
S884        H900   1.406       .  S
S886        H897   1.408   1_545  S
C888        C889   1.407       .  A
C888        S893   1.806       .  S
C889        C890   1.408       .  A
C889        H894   1.081       .  S
C890        C891   1.417   1_565  A
C891        C892   1.395       .  A
C891        S895   1.803       .  S
C892        H896   1.084       .  S
S893        H898   1.407       .  S
S895        H899   1.408       .  S
C901        C902   1.401       .  A
C901        C906   1.401       .  A
C901        H911   1.083       .  S
C902        C907   1.477       .  S
C902        C903   1.410   1_565  A
C903        C904   1.398       .  A
C903        S908   1.805       .  S
C904        C905   1.406       .  A
C904        H909   1.084       .  S
C905        C906   1.417   1_545  A
C906        S910   1.803       .  S
C907        C912   1.406       .  A
C907        C916   1.397   1_565  A
S908        H924   1.405       .  S
S910        H921   1.408       .  S
C912        C913   1.403       .  A
C912        S917   1.806       .  S
C913        C914   1.410       .  A
C913        H918   1.082       .  S
C914        C915   1.422   1_565  A
C915        C916   1.398       .  A
C915        S919   1.800       .  S
C916        H920   1.085       .  S
S917        H922   1.407       .  S
S919        H923   1.408       .  S
C925        C926   1.400       .  A
C925        C930   1.399       .  A
C925        H935   1.084       .  S
C926        C931   1.478       .  S
C926        C927   1.412       .  A
C927        C928   1.399       .  A
C927        S932   1.805       .  S
C928        C929   1.405       .  A
C928        H933   1.084       .  S
C929        C930   1.417       .  A
C930        S934   1.803       .  S
C931        C936   1.408       .  A
C931        C940   1.401       .  A
S932        H948   1.405       .  S
S934        H945   1.408       .  S
C936        C937   1.402       .  A
C936        S941   1.807       .  S
C937        C938   1.405       .  A
C937        H942   1.081   1_554  S
C938        C939   1.417       .  A
C939        C940   1.400       .  A
C939        S943   1.802   1_545  S
C940        H944   1.081       .  S
S941        H946   1.407   1_554  S
S943        H947   1.407       .  S
C949        C950   1.402       .  A
C949        C954   1.403       .  A
C949        H959   1.085       .  S
C950        C955   1.482       .  S
C950        C951   1.412       .  A
C951        C952   1.398       .  A
C951        S956   1.805       .  S
C952        C953   1.405       .  A
C952        H957   1.085       .  S
C953        C954   1.417       .  A
C954        S958   1.802       .  S
C955        C960   1.407       .  A
C955        C964   1.401       .  A
S956        H972   1.405       .  S
S958        H969   1.407       .  S
C960        C961   1.402       .  A
C960        S965   1.808       .  S
C961        C962   1.410       .  A
C961        H966   1.084       .  S
C962        C963   1.419       .  A
C963        C964   1.406       .  A
C963        S967   1.808       .  S
C964        H968   1.084       .  S
S965        H970   1.407       .  S
S967        H971   1.407       .  S
C973        C974   1.403       .  A
C973        C978   1.403       .  A
C973        H983   1.083       .  S
C974        C979   1.482       .  S
C974        C975   1.411       .  A
C975        C976   1.398       .  A
C975        S980   1.805       .  S
C976        C977   1.408       .  A
C976        H981   1.083       .  S
C977        C978   1.417       .  A
C978        S982   1.801       .  S
C979        C984   1.409       .  A
C979        C988   1.403       .  A
S980        H996   1.405       .  S
S982        H993   1.407       .  S
C984        C985   1.401       .  A
C984        S989   1.808       .  S
C985        C986   1.405   1_554  A
C985        H990   1.084   1_554  S
C986        C987   1.415       .  A
C987        C988   1.403   1_556  A
C987        S991   1.802       .  S
C988        H992   1.085       .  S
S989        H994   1.407       .  S
S991        H995   1.407       .  S
C997        C998   1.403       .  A
C997       C1002   1.400       .  A
C997       H1007   1.083       .  S
C998       C1003   1.489       .  S
C998        C999   1.413       .  A
C999       C1000   1.400       .  A
C999       S1004   1.804       .  S
C1000      C1001   1.408       .  A
C1000      H1005   1.083       .  S
C1001      C1002   1.420       .  A
C1002      S1006   1.802   1_565  S
C1003      C1008   1.413       .  A
C1003      C1012   1.405       .  A
S1004      H1020   1.407       .  S
S1006      H1017   1.409   1_556  S
C1008      C1009   1.403       .  A
C1008      S1013   1.808       .  S
C1009      C1010   1.403       .  A
C1009      H1014   1.085       .  S
C1010      C1011   1.411       .  A
C1011      C1012   1.400       .  A
C1011      S1015   1.804       .  S
C1012      H1016   1.085       .  S
S1013      H1018   1.407       .  S
S1015      H1019   1.407       .  S
C1021      C1022   1.400       .  A
C1021      C1026   1.396       .  A
C1021      H1031   1.084       .  S
C1022      C1027   1.486       .  S
C1022      C1023   1.414       .  A
C1023      C1024   1.406       .  A
C1023      S1028   1.803       .  S
C1024      C1025   1.407       .  A
C1024      H1029   1.084       .  S
C1025      C1026   1.418       .  A
C1026      S1030   1.801       .  S
C1027      C1032   1.408       .  A
C1027      C1036   1.402       .  A
S1028      H1044   1.406       .  S
S1030      H1041   1.403       .  S
C1032      C1033   1.404   1_556  A
C1032      S1037   1.807       .  S
C1033      C1034   1.408       .  A
C1033      H1038   1.078       .  S
C1034      C1035   1.420       .  A
C1035      C1036   1.407   1_554  A
C1035      S1039   1.809       .  S
C1036      H1040   1.080       .  S
S1037      H1042   1.406       .  S
S1039      H1043   1.407       .  S
C1045      C1046   1.402       .  A
C1045      C1050   1.401       .  A
C1045      H1055   1.088       .  S
C1046      C1051   1.489       .  S
C1046      C1047   1.412       .  A
C1047      C1048   1.403       .  A
C1047      S1052   1.804       .  S
C1048      C1049   1.408       .  A
C1048      H1053   1.088       .  S
C1049      C1050   1.419       .  A
C1050      S1054   1.801       .  S
C1051      C1056   1.410       .  A
C1051      C1060   1.399       .  A
S1052      H1068   1.406       .  S
S1054      H1065   1.405       .  S
C1056      C1057   1.406       .  A
C1056      S1061   1.807       .  S
C1057      C1058   1.410       .  A
C1057      H1062   1.083       .  S
C1058      C1059   1.424       .  A
C1059      C1060   1.405       .  A
C1059      S1063   1.810       .  S
C1060      H1064   1.085       .  S
S1061      H1066   1.406       .  S
S1063      H1067   1.406       .  S
C1069      C1070   1.404       .  A
C1069      C1074   1.403       .  A
C1069      H1079   1.083       .  S
C1070      C1075   1.477       .  S
C1070      C1071   1.411       .  A
C1071      C1072   1.395       .  A
C1071      S1076   1.805       .  S
C1072      C1073   1.402       .  A
C1072      H1077   1.084       .  S
C1073      C1074   1.411       .  A
C1074      S1078   1.804       .  S
C1075      C1080   1.408       .  A
C1075      C1084   1.401       .  A
S1076      H1092   1.406       .  S
S1078      H1089   1.406       .  S
C1080      C1081   1.400       .  A
C1080      S1085   1.808       .  S
C1081      C1082   1.406       .  A
C1081      H1086   1.082       .  S
C1082      C1083   1.417       .  A
C1083      C1084   1.401       .  A
C1083      S1087   1.802       .  S
C1084      H1088   1.083       .  S
S1085      H1090   1.407       .  S
S1087      H1091   1.408       .  S
C1093      C1094   1.401       .  A
C1093      C1098   1.399       .  A
C1093      H1103   1.087       .  S
C1094      C1099   1.479   1_655  S
C1094      C1095   1.411       .  A
C1095      C1096   1.399       .  A
C1095      S1100   1.805       .  S
C1096      C1097   1.406       .  A
C1096      H1101   1.085       .  S
C1097      C1098   1.416       .  A
C1098      S1102   1.803       .  S
C1099      C1104   1.408       .  A
C1099      C1108   1.402       .  A
S1100      H1116   1.405       .  S
S1102      H1113   1.408       .  S
C1104      C1105   1.402       .  A
C1104      S1109   1.807       .  S
C1105      C1106   1.406       .  A
C1105      H1110   1.083       .  S
C1106      C1107   1.414       .  A
C1107      C1108   1.401       .  A
C1107      S1111   1.803       .  S
C1108      H1112   1.083       .  S
S1109      H1114   1.407       .  S
S1111      H1115   1.408       .  S
