geometry optimzed in LAMMPS
_audit_creation_date              2020-12-01 
_audit_creation_method            'lammps2cif' 
_symmetry_space_group_name_H-M    'P1' 
_symmetry_Int_Tables_number       1 
_symmetry_cell_setting            triclinic 
loop_ 
_symmetry_equiv_pos_as_xyz 
  x,y,z 
_cell_length_a                    69.73845322 
_cell_length_b                    69.69631965394863 
_cell_length_c                    69.719837898062 
_cell_angle_alpha                 89.99309193492367 
_cell_angle_beta                  90.00645415612205 
_cell_angle_gamma                 90.06252088421209 
loop_ 
_atom_site_label 
_atom_site_type_symbol 
_atom_site_fract_x 
_atom_site_fract_y 
_atom_site_fract_z 
_atom_site_charge 
O1          O  0.04173904  0.46502293  0.88128714    -0.73800
O2          O  0.02735767  0.48895806  0.83387869    -0.73800
O3          O  0.00922900  0.48012531  0.86744749    -0.73900
O4          O  0.06021234  0.47374732  0.84823615    -0.73900
O5          O  0.05230022  0.44515446  0.83621748    -0.73800
O6          O  0.00080832  0.45180202  0.85510476    -0.73800
O7          O  0.01976865  0.46025445  0.82189347    -0.73800
O8          O  0.03375654  0.43641534  0.86930707    -0.73900
Ni9        Ni  0.03490214  0.47800219  0.85807395     1.25400
Ni10       Ni  0.02631504  0.44739521  0.84519876     1.25400
C11         C  0.03990040  0.44683360  0.88313997     0.88400
C12         C  0.02171108  0.47840360  0.81990573     0.88300
C13         C  0.99676972  0.46688613  0.86484580     0.88400
C14         C  0.06473580  0.45837142  0.83924761     0.88500
O15         O  0.05638833  0.39691547  0.04745186    -0.73800
O16         O  0.02562373  0.35253756  0.03596654    -0.73800
O17         O  0.04272559  0.36679210  0.06801956    -0.73900
O18         O  0.03932360  0.38314653  0.01586226    -0.73900
O19         O  0.06568800  0.36649683  0.00867835    -0.73800
O20         O  0.06915364  0.35012751  0.06121295    -0.73800
O21         O  0.05224491  0.33617479  0.02922445    -0.73800
O22         O  0.08292567  0.38033056  0.04085445    -0.73900
Ni23       Ni  0.04003919  0.37537141  0.04207682     1.25400
Ni24       Ni  0.06842825  0.35766747  0.03472137     1.25400
C25         C  0.07468228  0.39596297  0.04586299     0.88400
C26         C  0.03397229  0.33696397  0.03084649     0.88300
C27         C  0.05657056  0.35596287  0.07328137     0.88400
C28         C  0.05217002  0.37797126  0.00384447     0.88500
O29         O  0.87912175  0.49019320  0.95552786    -0.73800
O30         O  0.83306038  0.50087442  0.98333319    -0.73800
O31         O  0.84746947  0.46999634  0.96476602    -0.73900
O32         O  0.86505853  0.52095305  0.97392088    -0.73900
O33         O  0.85089537  0.53076331  0.94691412    -0.73800
O34         O  0.83309108  0.47949022  0.93778614    -0.73800
O35         O  0.81893734  0.51043306  0.95626089    -0.73800
O36         O  0.86511631  0.49936408  0.92825484    -0.73900
Ni37       Ni  0.85661668  0.49518442  0.97035729     1.25400
Ni38       Ni  0.84149328  0.50542227  0.94132551     1.25400
C39         C  0.87972706  0.49290560  0.93737844     0.88400
C40         C  0.81832565  0.50713944  0.97433575     0.88300
C41         C  0.83760926  0.46629705  0.94973083     0.88400
C42         C  0.86115281  0.53412550  0.96178720     0.88500
O43         O  0.14004293  0.55188720  0.06990136    -0.73800
O44         O  0.18622890  0.53917828  0.04288505    -0.73800
O45         O  0.15384387  0.51999749  0.05363368    -0.73900
O46         O  0.17166560  0.57129189  0.05913680    -0.73900
O47         O  0.18596259  0.56382565  0.08676983    -0.73800
O48         O  0.16779704  0.51167454  0.08119872    -0.73800
O49         O  0.20021812  0.53150083  0.07061138    -0.73800
O50         O  0.15425431  0.54440370  0.09759694    -0.73900
Ni51       Ni  0.16255145  0.54580069  0.05537549     1.25400
Ni52       Ni  0.17762891  0.53746755  0.08500965     1.25400
C53         C  0.13965480  0.55034129  0.08820875     0.88400
C54         C  0.20101197  0.53380618  0.05241490     0.88300
C55         C  0.15702444  0.50763744  0.06679380     0.88400
C56         C  0.18120973  0.57621232  0.07400053     0.88500
O57         O  0.97245347  0.57214299  0.13394459    -0.73800
O58         O  0.98340009  0.54142291  0.17874307    -0.73800
O59         O  0.95229298  0.56048333  0.16504350    -0.73900
O60         O  0.00308771  0.55306028  0.14686176    -0.73900
O61         O  0.01289727  0.57939482  0.16223273    -0.73800
O62         O  0.96158521  0.58664579  0.18099819    -0.73800
O63         O  0.99285724  0.56788209  0.19402378    -0.73800
O64         O  0.98141404  0.59851547  0.14971226    -0.73900
Ni65       Ni  0.97749543  0.55579822  0.15567913     1.25400
Ni66       Ni  0.98758295  0.58400509  0.17235616     1.25400
C67         C  0.97527615  0.59034535  0.13444168     0.88400
C68         C  0.98957827  0.54978403  0.19396295     0.88300
C69         C  0.94846743  0.57488128  0.17572387     0.88400
C70         C  0.01606665  0.56540946  0.15070173     0.88500
O71         O  0.95108685  0.65330244  0.97772432    -0.73800
O72         O  0.97749611  0.70013702  0.98885282    -0.73800
O73         O  0.96790371  0.66808288  0.00891681    -0.73900
O74         O  0.96069813  0.68457800  0.95728032    -0.73900
O75         O  0.93295054  0.69828150  0.96532844    -0.73800
O76         O  0.94053616  0.68204791  0.01780321    -0.73800
O77         O  0.94976685  0.71395413  0.99677809    -0.73800
O78         O  0.92341771  0.66689989  0.98624852    -0.73900
Ni79       Ni  0.96530865  0.67616022  0.98293495     1.25400
Ni80       Ni  0.93568882  0.69086616  0.99187677     1.25400
C81         C  0.93293286  0.65236668  0.98029796     0.88400
C82         C  0.96793877  0.71482787  0.99440463     0.88300
C83         C  0.95518430  0.67157365  0.02165349     0.88400
C84         C  0.94542036  0.69357796  0.95262334     0.88500
O85         O  0.88361872  0.55919621  0.55584816    -0.73800
O86         O  0.83700960  0.54993271  0.52808815    -0.73800
O87         O  0.85197542  0.58015607  0.54751786    -0.73900
O88         O  0.86880008  0.52920977  0.53643959    -0.73900
O89         O  0.85541435  0.51872937  0.56355042    -0.73800
O90         O  0.83724574  0.56961894  0.57390651    -0.73800
O91         O  0.82313155  0.53895420  0.55474150    -0.73800
O92         O  0.86933202  0.54947816  0.58277739    -0.73900
Ni93       Ni  0.86079662  0.55499698  0.54100614     1.25400
Ni94       Ni  0.84575662  0.54380119  0.56969492     1.25400
C95         C  0.88414458  0.55581140  0.57390376     0.88400
C96         C  0.82240416  0.54296002  0.53681714     0.88300
C97         C  0.84183603  0.58328391  0.56249965     0.88400
C98         C  0.86539806  0.51571383  0.54840868     0.88500
O99         O  0.95399067  0.39573161  0.54609611    -0.73800
O100        O  0.98291363  0.35057050  0.53291578    -0.73800
O101        O  0.97219394  0.38376854  0.51459019    -0.73900
O102        O  0.96473649  0.36345133  0.56481990    -0.73900
O103        O  0.93773707  0.34898094  0.55556480    -0.73800
O104        O  0.94557557  0.36905971  0.50455838    -0.73800
O105        O  0.95583820  0.33632466  0.52356222    -0.73800
O106        O  0.92717766  0.38108786  0.53640135    -0.73900
Ni107      Ni  0.96947485  0.37378858  0.53993576     1.25400
Ni108      Ni  0.94067045  0.35827691  0.52963565     1.25400
C109        C  0.93587476  0.39580701  0.54301425     0.88400
C110        C  0.97394510  0.33583102  0.52641549     0.88300
C111        C  0.95968691  0.38053561  0.50158180     0.88400
C112        C  0.94989104  0.35337418  0.56868239     0.88500
O113        O  0.97388222  0.47832329  0.38576951    -0.73800
O114        O  0.98360229  0.50284029  0.33712445    -0.73800
O115        O  0.95246235  0.48703602  0.35444800    -0.73900
O116        O  0.00478612  0.49431152  0.36881588    -0.73900
O117        O  0.01237860  0.46597382  0.35607556    -0.73800
O118        O  0.95979536  0.45899298  0.34090895    -0.73800
O119        O  0.99119157  0.47463055  0.32414021    -0.73800
O120        O  0.98082255  0.45010740  0.37241648    -0.73900
Ni121      Ni  0.97843702  0.49165589  0.36193119     1.25400
Ni122      Ni  0.98635494  0.46143288  0.34790812     1.25400
C123        C  0.97574471  0.46005814  0.38702298     0.88400
C124        C  0.98875714  0.49278190  0.32257276     0.88300
C125        C  0.94745130  0.47183877  0.34544744     0.88400
C126        C  0.01708617  0.48115349  0.36537025     0.88500
O127        O  0.13366534  0.49065197  0.45688765    -0.73800
O128        O  0.17883585  0.49620359  0.48795400    -0.73800
O129        O  0.14882117  0.51893818  0.47773948    -0.73900
O130        O  0.16311632  0.46726330  0.46700878    -0.73900
O131        O  0.17993203  0.47701631  0.44159560    -0.73800
O132        O  0.16482858  0.52917528  0.45198490    -0.73800
O133        O  0.19497193  0.50628278  0.46222848    -0.73800
O134        O  0.15029908  0.49998184  0.43114187    -0.73900
Ni135      Ni  0.15562122  0.49287326  0.47334771     1.25400
Ni136      Ni  0.17317219  0.50346556  0.44586049     1.25400
C137        C  0.13455727  0.49485087  0.43901950     0.88400
C138        C  0.19437350  0.50217059  0.48010666     0.88300
C139        C  0.15345726  0.53235153  0.46610377     0.88400
C140        C  0.17372794  0.46354584  0.45250376     0.88500
O141        O  0.04264557  0.56422139  0.63776435    -0.73800
O142        O  0.02811453  0.53716100  0.68364126    -0.73800
O143        O  0.00976739  0.54943716  0.65102924    -0.73900
O144        O  0.06125308  0.55195065  0.66929132    -0.73900
O145        O  0.05483590  0.57959787  0.68409303    -0.73800
O146        O  0.00305312  0.57725848  0.66540037    -0.73800
O147        O  0.02145016  0.56510965  0.69769804    -0.73800
O148        O  0.03644002  0.59196016  0.65248378    -0.73900
Ni149      Ni  0.03562159  0.54961037  0.66003467     1.25400
Ni150      Ni  0.02866956  0.57941056  0.67551365     1.25400
C151        C  0.04179066  0.58259671  0.63765073     0.88400
C152        C  0.02268832  0.54682401  0.69836128     0.88300
C153        C  0.99829813  0.56334975  0.65433901     0.88400
C154        C  0.06671056  0.56651774  0.67901069     0.88500
O155        O  0.05345315  0.64494700  0.47974613    -0.73800
O156        O  0.02601189  0.69108539  0.49284654    -0.73800
O157        O  0.04215724  0.67680376  0.46035338    -0.73900
O158        O  0.03731628  0.65869959  0.51180672    -0.73900
O159        O  0.06490710  0.67301651  0.51959423    -0.73800
O160        O  0.06967104  0.69130459  0.46793074    -0.73800
O161        O  0.05377586  0.70510168  0.50037293    -0.73800
O162        O  0.08106180  0.65952292  0.48687851    -0.73900
Ni163      Ni  0.03869427  0.66744238  0.48592734     1.25400
Ni164      Ni  0.06829574  0.68277419  0.49401256     1.25400
C165        C  0.07177790  0.64468950  0.48130500     0.88400
C166        C  0.03554486  0.70582945  0.49844044     0.88300
C167        C  0.05681157  0.68679839  0.45559424     0.88400
C168        C  0.05061800  0.66228723  0.52390842     0.88500
O169        O  0.54381704  0.56749089  0.88847273    -0.73800
O170        O  0.53374689  0.53936936  0.84235712    -0.73800
O171        O  0.56401157  0.55906065  0.85644893    -0.73900
O172        O  0.51380678  0.54780595  0.87475598    -0.73900
O173        O  0.50283459  0.57468389  0.86126749    -0.73800
O174        O  0.55320072  0.58536681  0.84174803    -0.73800
O175        O  0.52251059  0.56606226  0.82871663    -0.73800
O176        O  0.53383324  0.59431803  0.87409335    -0.73900
Ni177      Ni  0.53922979  0.55244016  0.86594555     1.25400
Ni178      Ni  0.52764470  0.58104030  0.85094548     1.25400
C179        C  0.54044587  0.58554197  0.88878299     0.88400
C180        C  0.52679641  0.54825419  0.82785018     0.88300
C181        C  0.56691737  0.57399671  0.84616492     0.88400
C182        C  0.50022948  0.55971450  0.87166117     0.88500
O183        O  0.37932175  0.55518870  0.95829900    -0.73800
O184        O  0.33390820  0.54159198  0.98646083    -0.73800
O185        O  0.36539914  0.52275513  0.97284065    -0.73900
O186        O  0.34859871  0.57455899  0.97209579    -0.73900
O187        O  0.33244477  0.56925645  0.94498121    -0.73800
O188        O  0.35053759  0.51694205  0.94508050    -0.73800
O189        O  0.31887181  0.53566686  0.95884931    -0.73800
O190        O  0.36346619  0.55064294  0.93084219    -0.73900
Ni191      Ni  0.35725362  0.54869964  0.97344549     1.25400
Ni192      Ni  0.34070338  0.54288471  0.94397965     1.25400
C193        C  0.37883786  0.55481786  0.93992046     0.88400
C194        C  0.31877314  0.53673516  0.97716214     0.88300
C195        C  0.36177407  0.51169473  0.95869062     0.88400
C196        C  0.33801052  0.58057345  0.95840761     0.88500
O197        O  0.45739588  0.39716989  0.97691256    -0.73800
O198        O  0.48419088  0.35052380  0.98830490    -0.73800
O199        O  0.46652653  0.36518471  0.95695704    -0.73900
O200        O  0.47482326  0.38318110  0.00820185    -0.73900
O201        O  0.44744880  0.36947407  0.01757056    -0.73800
O202        O  0.43928808  0.35116908  0.96625010    -0.73800
O203        O  0.45673866  0.33701942  0.99767168    -0.73800
O204        O  0.42983945  0.38338754  0.98564265    -0.73900
Ni205      Ni  0.47176284  0.37443378  0.98231840     1.25400
Ni206      Ni  0.44237666  0.35976971  0.99218185     1.25400
C207        C  0.43920982  0.39786965  0.97927573     0.88400
C208        C  0.47475964  0.33591391  0.99436152     0.88300
C209        C  0.45148672  0.35532281  0.95315764     0.88400
C210        C  0.46217463  0.37991322  0.02111910     0.88500
O211        O  0.47711876  0.47398471  0.13846975    -0.73800
O212        O  0.48793078  0.50131424  0.18506319    -0.73800
O213        O  0.50835307  0.49044000  0.15367017    -0.73900
O214        O  0.45625575  0.48470662  0.16941639    -0.73900
O215        O  0.46359971  0.45722967  0.18408168    -0.73800
O216        O  0.51609891  0.46300269  0.16822349    -0.73800
O217        O  0.49517410  0.47373152  0.19955642    -0.73800
O218        O  0.48426743  0.44636340  0.15295621    -0.73900
Ni219      Ni  0.48215769  0.48861913  0.16122980     1.25400
Ni220      Ni  0.49008226  0.45911434  0.17676558     1.25400
C221        C  0.47906399  0.45571151  0.13799446     0.88400
C222        C  0.49315301  0.49199616  0.20003887     0.88300
C223        C  0.52061371  0.47740959  0.15771032     0.88400
C224        C  0.45126539  0.46990528  0.17907703     0.88500
O225        O  0.56044445  0.64969604  0.04307243    -0.73800
O226        O  0.53155470  0.69583600  0.03451168    -0.73800
O227        O  0.54080890  0.66424403  0.01349470    -0.73900
O228        O  0.55120927  0.68090342  0.06440123    -0.73900
O229        O  0.57775311  0.69576772  0.05444237    -0.73800
O230        O  0.56721189  0.67904992  0.00303865    -0.73800
O231        O  0.55812526  0.71060489  0.02452623    -0.73800
O232        O  0.58701962  0.66456391  0.03320296    -0.73900
Ni233      Ni  0.54503413  0.67221825  0.03922006     1.25400
Ni234      Ni  0.57344674  0.68806789  0.02838234     1.25400
C235        C  0.57845953  0.64951771  0.03941541     0.88400
C236        C  0.54018707  0.71093516  0.02848579     0.88300
C237        C  0.55269308  0.66814410  0.00009213     0.88400
C238        C  0.56618633  0.69093706  0.06787713     0.88500
O239        O  0.63949015  0.49172990  0.06647815    -0.73800
O240        O  0.68688821  0.50242637  0.04089089    -0.73800
O241        O  0.67146592  0.47150848  0.05868412    -0.73900
O242        O  0.65425562  0.52237228  0.04864662    -0.73900
O243        O  0.66719917  0.53252436  0.07611356    -0.73800
O244        O  0.68461422  0.48104874  0.08626938    -0.73800
O245        O  0.69984725  0.51194838  0.06856432    -0.73800
O246        O  0.65246030  0.50109509  0.09422484    -0.73900
Ni247      Ni  0.66266880  0.49670172  0.05266842     1.25400
Ni248      Ni  0.67652485  0.50709475  0.08227469     1.25400
C249        C  0.63824620  0.49458984  0.08456982     0.88400
C250        C  0.70129129  0.50848943  0.05059475     0.88300
C251        C  0.68051268  0.46778696  0.07420110     0.88400
C252        C  0.65721317  0.53563967  0.06095030     0.88500
O253        O  0.44941892  0.65117713  0.54151753    -0.73800
O254        O  0.47467979  0.69955718  0.53296730    -0.73800
O255        O  0.45803901  0.68199478  0.56345947    -0.73900
O256        O  0.46619252  0.66811858  0.51143398    -0.73900
O257        O  0.43810858  0.68090506  0.50306309    -0.73800
O258        O  0.43024112  0.69592449  0.55596789    -0.73800
O259        O  0.44661977  0.71262882  0.52498002    -0.73800
O260        O  0.42128966  0.66462118  0.53438588    -0.73900
Ni261      Ni  0.46307493  0.67484244  0.53760885     1.25400
Ni262      Ni  0.43306081  0.68904857  0.52924780     1.25400
C263        C  0.43120934  0.64995625  0.53929616     0.88400
C264        C  0.46469473  0.71415303  0.52786851     0.88300
C265        C  0.44288678  0.69101267  0.56841533     0.88400
C266        C  0.45328709  0.67133695  0.49884047     0.88500
O267        O  0.47398318  0.57577304  0.38489449    -0.73800
O268        O  0.48567670  0.54521901  0.34053038    -0.73800
O269        O  0.50504066  0.55718072  0.37218082    -0.73900
O270        O  0.45415636  0.56379980  0.35355902    -0.73900
O271        O  0.46292224  0.59020707  0.33773026    -0.73800
O272        O  0.51437536  0.58343222  0.35635555    -0.73800
O273        O  0.49456853  0.57170578  0.32492318    -0.73800
O274        O  0.48263581  0.60225147  0.36909211    -0.73900
Ni275      Ni  0.47936431  0.55954627  0.36329350     1.25400
Ni276      Ni  0.48897403  0.58783852  0.34644456     1.25400
C277        C  0.47665844  0.59396666  0.38436499     0.88400
C278        C  0.49194089  0.55351617  0.32534813     0.88300
C279        C  0.51795963  0.56938887  0.36767835     0.88400
C280        C  0.45006813  0.57802057  0.34270152     0.88500
O281        O  0.63644425  0.55395817  0.45859625    -0.73800
O282        O  0.68233856  0.54047002  0.48533876    -0.73800
O283        O  0.66845889  0.57292750  0.46909871    -0.73900
O284        O  0.64976833  0.52185051  0.47451502    -0.73900
O285        O  0.66386829  0.51343703  0.44702655    -0.73800
O286        O  0.68234400  0.56502564  0.44136058    -0.73800
O287        O  0.69635596  0.53286686  0.45759675    -0.73800
O288        O  0.65014992  0.54600978  0.43078154    -0.73900
Ni289      Ni  0.65886180  0.54755293  0.47290279     1.25400
Ni290      Ni  0.67372463  0.53898431  0.44320377     1.25400
C291        C  0.63565688  0.55198387  0.44037330     0.88400
C292        C  0.69705629  0.53496058  0.47584525     0.88300
C293        C  0.67816170  0.57747574  0.45420064     0.88400
C294        C  0.65302744  0.50951127  0.46134568     0.88500
O295        O  0.55648240  0.39568071  0.48156240    -0.73800
O296        O  0.52949454  0.34871024  0.49145248    -0.73800
O297        O  0.53847770  0.38071148  0.51205331    -0.73900
O298        O  0.54760048  0.36429512  0.46091407    -0.73900
O299        O  0.57488715  0.35027991  0.47005454    -0.73800
O300        O  0.56566776  0.36683774  0.52169347    -0.73800
O301        O  0.55690311  0.33494033  0.50052175    -0.73800
O302        O  0.58388086  0.38180199  0.49054622    -0.73900
Ni303      Ni  0.54199989  0.37276913  0.48622920     1.25400
Ni304      Ni  0.57128918  0.35794763  0.49614532     1.25400
C305        C  0.57465366  0.39633867  0.48413485     0.88400
C306        C  0.53891150  0.33391891  0.49700161     0.88300
C307        C  0.55085884  0.37716946  0.52509271     0.88400
C308        C  0.56281204  0.35485142  0.45700591     0.88500
O309        O  0.53434121  0.47437893  0.63833115    -0.73800
O310        O  0.52793767  0.50239550  0.68513250    -0.73800
O311        O  0.55761197  0.48427411  0.66783592    -0.73900
O312        O  0.50485304  0.49275680  0.65564374    -0.73900
O313        O  0.49712436  0.46486845  0.66941144    -0.73800
O314        O  0.54950601  0.45764845  0.68368246    -0.73800
O315        O  0.51925600  0.47522209  0.69971566    -0.73800
O316        O  0.52769821  0.44705997  0.65369065    -0.73900
Ni317      Ni  0.53146358  0.48944357  0.66117778     1.25400
Ni318      Ni  0.52306254  0.46025955  0.67717918     1.25400
C319        C  0.53235212  0.45609190  0.63842749     0.88400
C320        C  0.52267141  0.49325551  0.70016591     0.88300
C321        C  0.56219189  0.46961762  0.67790883     0.88400
C322        C  0.49242300  0.48004548  0.66019418     0.88500
O323        O  0.37630156  0.48587748  0.56981768    -0.73800
O324        O  0.33325422  0.49755108  0.53746361    -0.73800
O325        O  0.36517924  0.51687757  0.54938242    -0.73900
O326        O  0.34521422  0.46651187  0.55784335    -0.73900
O327        O  0.32964341  0.47689650  0.58378612    -0.73800
O328        O  0.34807519  0.52807773  0.57398588    -0.73800
O329        O  0.31693810  0.50721987  0.56322327    -0.73800
O330        O  0.36042498  0.49793673  0.59488618    -0.73900
Ni331      Ni  0.35552101  0.49137178  0.55265461     1.25400
Ni332      Ni  0.33816077  0.50293467  0.57984965     1.25400
C333        C  0.37535922  0.49019355  0.58764901     0.88400
C334        C  0.31780380  0.50384203  0.54522409     0.88300
C335        C  0.36019673  0.53069755  0.56039496     0.88400
C336        C  0.33464768  0.46325262  0.57248742     0.88500
O337        O  0.55388745  0.89690642  0.54415171    -0.73800
O338        O  0.52643632  0.85023648  0.53265624    -0.73800
O339        O  0.54418813  0.86503622  0.56394593    -0.73900
O340        O  0.53597243  0.88301319  0.51302763    -0.73900
O341        O  0.56313421  0.86904363  0.50354724    -0.73800
O342        O  0.57161480  0.85108223  0.55527840    -0.73800
O343        O  0.55389333  0.83654575  0.52373175    -0.73800
O344        O  0.58121714  0.88286022  0.53528786    -0.73900
Ni345      Ni  0.53910922  0.87419180  0.53872131     1.25400
Ni346      Ni  0.56839774  0.85933227  0.52904236     1.25400
C347        C  0.57211520  0.89745005  0.54170229     0.88400
C348        C  0.53581175  0.83551409  0.52675753     0.88300
C349        C  0.55935954  0.85567946  0.56821429     0.88400
C350        C  0.54851167  0.87970148  0.50008603     0.88500
O351        O  0.53317963  0.97300858  0.38171099    -0.73800
O352        O  0.52649727  0.99789079  0.33295000    -0.73800
O353        O  0.50351836  0.98939955  0.36338072    -0.73900
O354        O  0.55646621  0.98143906  0.35168275    -0.73900
O355        O  0.54928928  0.95360890  0.33757587    -0.73800
O356        O  0.49613827  0.96118316  0.35011346    -0.73800
O357        O  0.51915946  0.96974948  0.31957518    -0.73800
O358        O  0.52665171  0.94482726  0.36799940    -0.73900
Ni359      Ni  0.53016059  0.98647123  0.35783408     1.25400
Ni360      Ni  0.52249935  0.95635596  0.34331795     1.25400
C361        C  0.53104636  0.95477732  0.38282821     0.88400
C362        C  0.52201683  0.98783868  0.31819369     0.88300
C363        C  0.49128395  0.97634149  0.35931520     0.88400
C364        C  0.56161681  0.96623574  0.34275914     0.88500
O365        O  0.44480248  0.15414961  0.48197003    -0.73800
O366        O  0.47327537  0.20027649  0.49211320    -0.73800
O367        O  0.46340857  0.16845492  0.51249972    -0.73900
O368        O  0.45480179  0.18557693  0.46124504    -0.73900
O369        O  0.42827444  0.20079293  0.47056213    -0.73800
O370        O  0.43615161  0.18211299  0.52208463    -0.73800
O371        O  0.44637268  0.21440198  0.50204112    -0.73800
O372        O  0.41770385  0.16891876  0.49036647    -0.73900
Ni373      Ni  0.46003592  0.17664723  0.48664410     1.25400
Ni374      Ni  0.43117952  0.19210734  0.49665481     1.25400
C375        C  0.42659437  0.15396473  0.48451757     0.88400
C376        C  0.46436871  0.21507312  0.49843745     0.88300
C377        C  0.45097442  0.17176442  0.52557369     0.88400
C378        C  0.44021592  0.19602306  0.45740150     0.88500
O379        O  0.37244088  0.99513876  0.44876019    -0.73800
O380        O  0.32541280  0.00334815  0.47600940    -0.73800
O381        O  0.34170686  0.97336602  0.45696196    -0.73900
O382        O  0.35683325  0.02475762  0.46777635    -0.73900
O383        O  0.34282497  0.03510939  0.44094013    -0.73800
O384        O  0.32760241  0.98288403  0.42987677    -0.73800
O385        O  0.31146463  0.01295245  0.44888043    -0.73800
O386        O  0.35866587  0.00495256  0.42161056    -0.73900
Ni387      Ni  0.34949779  0.99883607  0.46334069     1.25400
Ni388      Ni  0.33458429  0.00936853  0.43435492     1.25400
C389        C  0.37328790  0.99855979  0.43072681     0.88400
C390        C  0.31064784  0.00945226  0.46690244     0.88300
C391        C  0.33260165  0.96950348  0.44150957     0.88400
C392        C  0.35287907  0.03828572  0.45604802     0.88500
O393        O  0.47440905  0.07630704  0.63913959    -0.73800
O394        O  0.48574825  0.04691751  0.68431755    -0.73800
O395        O  0.45387437  0.06384581  0.66977171    -0.73900
O396        O  0.50591439  0.05939104  0.65327213    -0.73900
O397        O  0.51355162  0.08617154  0.66910135    -0.73800
O398        O  0.46103866  0.09072766  0.68559553    -0.73800
O399        O  0.49289989  0.07393781  0.69991329    -0.73800
O400        O  0.48140656  0.10327218  0.65496308    -0.73900
Ni401      Ni  0.47973283  0.06062635  0.66113194     1.25400
Ni402      Ni  0.48752271  0.08947410  0.67797791     1.25400
C403        C  0.47618909  0.09459460  0.63964474     0.88400
C404        C  0.49090544  0.05568247  0.69964681     0.88300
C405        C  0.44879906  0.07808018  0.68019822     0.88400
C406        C  0.51814407  0.07223155  0.65800984     0.88500
O407        O  0.63533257  0.05533072  0.56548751    -0.73800
O408        O  0.68061669  0.04236360  0.53704489    -0.73800
O409        O  0.64841909  0.02327245  0.54882050    -0.73900
O410        O  0.66678964  0.07463185  0.55380124    -0.73900
O411        O  0.68160924  0.06683328  0.58105574    -0.73800
O412        O  0.66329686  0.01480541  0.57585179    -0.73800
O413        O  0.69537308  0.03459303  0.56432617    -0.73800
O414        O  0.64993954  0.04735772  0.59280486    -0.73900
Ni415      Ni  0.65735257  0.04911964  0.55030049     1.25400
Ni416      Ni  0.67313653  0.04054562  0.57946783     1.25400
C417        C  0.63513590  0.05344236  0.58376855     0.88400
C418        C  0.69566325  0.03687970  0.54608121     0.88300
C419        C  0.65210614  0.01081676  0.56178121     0.88400
C420        C  0.67690630  0.07932324  0.56837575     0.88500
O421        O  0.45936679  0.89805268  0.04661005    -0.73800
O422        O  0.48813035  0.85214032  0.03686618    -0.73800
O423        O  0.47874751  0.88408904  0.01649699    -0.73900
O424        O  0.46857795  0.86633387  0.06737411    -0.73900
O425        O  0.44202791  0.85163141  0.05721944    -0.73800
O426        O  0.45228309  0.86942170  0.00604456    -0.73800
O427        O  0.46145618  0.83757394  0.02684908    -0.73800
O428        O  0.43266219  0.88348164  0.03665332    -0.73900
Ni429      Ni  0.47465738  0.87561353  0.04222292     1.25400
Ni430      Ni  0.44615999  0.86000279  0.03129665     1.25400
C431        C  0.44137239  0.89842451  0.04293047     0.88400
C432        C  0.47946222  0.83721301  0.03050007     0.88300
C433        C  0.46698223  0.88006600  0.00299399     0.88400
C434        C  0.45369630  0.85606312  0.07070782     0.88500
O435        O  0.38251110  0.05816938  0.06129374    -0.73800
O436        O  0.33664495  0.04713032  0.03245054    -0.73800
O437        O  0.35168233  0.07872937  0.04951449    -0.73900
O438        O  0.36832150  0.02709128  0.04386432    -0.73900
O439        O  0.35327709  0.01883552  0.07088389    -0.73800
O440        O  0.33625083  0.07127558  0.07653383    -0.73800
O441        O  0.32172077  0.03948724  0.05968506    -0.73800
O442        O  0.36715491  0.05083723  0.08840747    -0.73900
Ni443      Ni  0.36024320  0.05305413  0.04579655     1.25400
Ni444      Ni  0.34401662  0.04477535  0.07482752     1.25400
C445        C  0.38236627  0.05606097  0.07957914     0.88400
C446        C  0.32147270  0.04183884  0.04147936     0.88300
C447        C  0.34143401  0.08363134  0.06388403     0.88400
C448        C  0.36429286  0.01466183  0.05670604     0.88500
O449        O  0.47807442  0.97331463  0.88657009    -0.73800
O450        O  0.48389107  0.00293798  0.84051844    -0.73800
O451        O  0.45447347  0.98342252  0.85721174    -0.73900
O452        O  0.50687013  0.99264806  0.87028536    -0.73900
O453        O  0.51580634  0.96624254  0.85453216    -0.73800
O454        O  0.46328439  0.95723738  0.84106506    -0.73800
O455        O  0.49267119  0.97644438  0.82487684    -0.73800
O456        O  0.48624165  0.94679222  0.87059823    -0.73900
Ni457      Ni  0.48048263  0.98906316  0.86414328     1.25400
Ni458      Ni  0.48980341  0.96076312  0.84716436     1.25400
C459        C  0.48155634  0.95527337  0.88619148     0.88400
C460        C  0.48924308  0.99447924  0.82509208     0.88300
C461        C  0.45026086  0.96873540  0.84701254     0.88400
C462        C  0.51978029  0.98061646  0.86527013     0.88500
O463        O  0.54242770  0.07800842  0.13690046    -0.73800
O464        O  0.53100746  0.05048063  0.18330433    -0.73800
O465        O  0.51096914  0.06123644  0.15163124    -0.73900
O466        O  0.56262096  0.06704202  0.16813987    -0.73900
O467        O  0.55517217  0.09459069  0.18260859    -0.73800
O468        O  0.50275109  0.08863464  0.16596566    -0.73800
O469        O  0.52336398  0.07811297  0.19749139    -0.73800
O470        O  0.53477102  0.10552890  0.15129980    -0.73900
Ni471      Ni  0.53699602  0.06320858  0.15952712     1.25400
Ni472      Ni  0.52870205  0.09270021  0.17488206     1.25400
C473        C  0.54043473  0.09629579  0.13646869     0.88400
C474        C  0.52563465  0.05990496  0.19816212     0.88300
C475        C  0.49846245  0.07404195  0.15558322     0.88400
C476        C  0.56749058  0.08173227  0.17796879     0.88500
O477        O  0.56214789  0.15336007  0.97739101    -0.73800
O478        O  0.53630769  0.20089254  0.98798330    -0.73800
O479        O  0.55234057  0.18447458  0.95636989    -0.73900
O480        O  0.54614032  0.16913345  0.00852270    -0.73900
O481        O  0.57410399  0.18281300  0.01604781    -0.73800
O482        O  0.58032012  0.19841158  0.96320731    -0.73800
O483        O  0.56447038  0.21443702  0.99488956    -0.73800
O484        O  0.59023375  0.16717599  0.98413934    -0.73900
Ni485      Ni  0.54820699  0.17658841  0.98231703     1.25400
Ni486      Ni  0.57825608  0.19125790  0.98989859     1.25400
C487        C  0.58042398  0.15247115  0.97911834     0.88400
C488        C  0.54626643  0.21558351  0.99288361     0.88300
C489        C  0.56743432  0.19347530  0.95101912     0.88400
C490        C  0.55937590  0.17274813  0.02067033     0.88500
O491        O  0.63676336  0.99104221  0.95876428    -0.73800
O492        O  0.68252784  0.00383432  0.98682548    -0.73800
O493        O  0.65069973  0.02307691  0.97462644    -0.73900
O494        O  0.66772209  0.97128001  0.97099857    -0.73900
O495        O  0.68251205  0.97776432  0.94338710    -0.73800
O496        O  0.66552441  0.03039037  0.94722906    -0.73800
O497        O  0.69713615  0.01041396  0.95915200    -0.73800
O498        O  0.65161329  0.99770277  0.93119839    -0.73900
Ni499      Ni  0.65900924  0.99708051  0.97381307     1.25400
Ni500      Ni  0.67482411  0.00435728  0.94429994     1.25400
C501        C  0.63662592  0.99253234  0.94043201     0.88400
C502        C  0.69751517  0.00901910  0.97746399     0.88300
C503        C  0.65455284  0.03504651  0.96127435     0.88400
C504        C  0.67725289  0.96575692  0.95634296     0.88500
O505        O  0.95148548  0.15166714  0.04013351    -0.73800
O506        O  0.97954068  0.19754866  0.02934661    -0.73800
O507        O  0.96143792  0.18287983  0.06043153    -0.73900
O508        O  0.96927931  0.16595491  0.00910516    -0.73900
O509        O  0.94231439  0.18049097  0.99986933    -0.73800
O510        O  0.93448097  0.19766856  0.05156899    -0.73800
O511        O  0.95254025  0.21220248  0.02046780    -0.73800
O512        O  0.92424881  0.16608677  0.03156784    -0.73900
Ni513      Ni  0.96641956  0.17406544  0.03501687     1.25400
Ni514      Ni  0.93742977  0.18965182  0.02546336     1.25400
C515        C  0.93326791  0.15138410  0.03797195     0.88400
C516        C  0.97067215  0.21253218  0.02350649     0.88300
C517        C  0.94651569  0.19273931  0.06452208     0.88400
C518        C  0.95692299  0.16999369  0.99615809     0.88500
O519        O  0.87944223  0.99477223  0.06772687    -0.73800
O520        O  0.83186131  0.00476882  0.04125336    -0.73800
O521        O  0.86256161  0.02596493  0.05299845    -0.73900
O522        O  0.84948688  0.97306324  0.05578951    -0.73900
O523        O  0.83429467  0.97801064  0.08350305    -0.73800
O524        O  0.84855104  0.03152778  0.08123665    -0.73800
O525        O  0.81767089  0.01027439  0.06936112    -0.73800
O526        O  0.86471049  0.99911227  0.09577955    -0.73900
Ni527      Ni  0.85624444  0.99947177  0.05341841     1.25400
Ni528      Ni  0.84071481  0.00494710  0.08345039     1.25400
C529        C  0.87989440  0.99539754  0.08612445     0.88400
C530        C  0.81686242  0.00908228  0.05104732     0.88300
C531        C  0.85865999  0.03720061  0.06692820     0.88400
C532        C  0.84005219  0.96670140  0.07015932     0.88500
O533        O  0.04200587  0.96730172  0.14175108    -0.73800
O534        O  0.03129161  0.99488171  0.18863863    -0.73800
O535        O  0.06226811  0.97669953  0.17340117    -0.73900
O536        O  0.01110328  0.98574162  0.15608917    -0.73900
O537        O  0.00119915  0.95879581  0.17021878    -0.73800
O538        O  0.05309579  0.94935266  0.18728049    -0.73800
O539        O  0.02232481  0.96737275  0.20228844    -0.73800
O540        O  0.03237495  0.94013446  0.15563713    -0.73900
Ni541      Ni  0.03693846  0.98216237  0.16453473     1.25400
Ni542      Ni  0.02682581  0.95297646  0.17935507     1.25400
C543        C  0.03912803  0.94911093  0.14109951     0.88400
C544        C  0.02564681  0.98539845  0.20341750     0.88300
C545        C  0.06622751  0.96149731  0.18288252     0.88400
C546        C  0.99781630  0.97362510  0.15979634     0.88500
O547        O  0.06895401  0.89053491  0.98334886    -0.73800
O548        O  0.03837074  0.84565308  0.99219700    -0.73800
O549        O  0.04977773  0.87635448  0.01357926    -0.73900
O550        O  0.05745014  0.86057024  0.96185152    -0.73900
O551        O  0.08382547  0.84451586  0.97015430    -0.73800
O552        O  0.07579164  0.86014205  0.02276182    -0.73800
O553        O  0.06477677  0.82969611  0.00061852    -0.73800
O554        O  0.09520288  0.87446393  0.99207754    -0.73900
Ni555      Ni  0.05267775  0.86877491  0.98748240     1.25400
Ni556      Ni  0.08081120  0.85157282  0.99679364     1.25400
C557        C  0.08711192  0.88980498  0.98611471     0.88400
C558        C  0.04671352  0.83013406  0.99745442     0.88300
C559        C  0.06176754  0.87146088  0.02654270     0.88400
C560        C  0.07197437  0.85035184  0.95732039     0.88500
O561        O  0.13333431  0.05411111  0.96051277    -0.73800
O562        O  0.17894962  0.04449296  0.99024403    -0.73800
O563        O  0.16340014  0.07534333  0.97251225    -0.73900
O564        O  0.14801533  0.02359344  0.97842118    -0.73900
O565        O  0.16352719  0.01541661  0.95162610    -0.73800
O566        O  0.17955393  0.06808170  0.94586335    -0.73800
O567        O  0.19451344  0.03669360  0.96343687    -0.73800
O568        O  0.14922877  0.04685064  0.93372507    -0.73900
Ni569      Ni  0.15548369  0.04962435  0.97640508     1.25400
Ni570      Ni  0.17236602  0.04142363  0.94773577     1.25400
C571        C  0.13376546  0.05194387  0.94223460     0.88400
C572        C  0.19438628  0.03934436  0.98162762     0.88300
C573        C  0.17353228  0.08040908  0.95813819     0.88400
C574        C  0.15222446  0.01129311  0.96556024     0.88500
O575        O  0.97666952  0.07876427  0.87913749    -0.73800
O576        O  0.98695728  0.05063921  0.83307776    -0.73800
O577        O  0.00709439  0.05999194  0.86528703    -0.73900
O578        O  0.95626546  0.06939113  0.84775115    -0.73900
O579        O  0.96574460  0.09627926  0.83317322    -0.73800
O580        O  0.01731412  0.08678076  0.85102984    -0.73800
O581        O  0.99655265  0.07763840  0.81879908    -0.73800
O582        O  0.98603227  0.10584142  0.86479246    -0.73900
Ni583      Ni  0.98143739  0.06371354  0.85671291     1.25400
Ni584      Ni  0.99186013  0.09258048  0.84138447     1.25400
C585        C  0.97961479  0.09689539  0.87949238     0.88400
C586        C  0.99296711  0.05962617  0.81819533     0.88300
C587        C  0.02039961  0.07211251  0.86177238     0.88400
C588        C  0.95247323  0.08449879  0.83806511     0.88500
O589        O  0.04123274  0.07310280  0.38670200    -0.73800
O590        O  0.02862641  0.04586602  0.34023407    -0.73800
O591        O  0.06062394  0.06244120  0.35473824    -0.73900
O592        O  0.00957206  0.05648805  0.37312617    -0.73900
O593        O  0.00117849  0.08422697  0.35950187    -0.73800
O594        O  0.05238900  0.08965015  0.34001139    -0.73800
O595        O  0.01995259  0.07348089  0.32664303    -0.73800
O596        O  0.03388420  0.10072443  0.37226768    -0.73900
Ni597      Ni  0.03526446  0.05842689  0.36410278     1.25400
Ni598      Ni  0.02649152  0.08796406  0.34906257     1.25400
C599        C  0.03945134  0.09140909  0.38707096     0.88400
C600        C  0.02275872  0.05536493  0.32556077     0.88300
C601        C  0.06496633  0.07704822  0.34452547     0.88400
C602        C  0.99736423  0.06987046  0.37036372     0.88500
O603        O  0.88430017  0.05746630  0.46983903    -0.73800
O604        O  0.83770991  0.04590576  0.49691844    -0.73800
O605        O  0.87052015  0.02640729  0.48758795    -0.73900
O606        O  0.85226038  0.07736156  0.47886260    -0.73900
O607        O  0.83828806  0.06767345  0.45174364    -0.73800
O608        O  0.85682496  0.01659548  0.46036735    -0.73800
O609        O  0.82408097  0.03634676  0.46960481    -0.73800
O610        O  0.87042636  0.04825839  0.44249184    -0.73900
Ni611      Ni  0.86156178  0.05209314  0.48434480     1.25400
Ni612      Ni  0.84685881  0.04181336  0.45512801     1.25400
C613        C  0.88498601  0.05466625  0.45170143     0.88400
C614        C  0.82309157  0.03960800  0.48766053     0.88300
C615        C  0.86761232  0.01344071  0.47492550     0.88400
C616        C  0.84269411  0.08099030  0.46361324     0.88500
O617        O  0.94989536  0.88862572  0.48249626    -0.73800
O618        O  0.97493414  0.84120207  0.49569218    -0.73800
O619        O  0.96123621  0.85692883  0.46294326    -0.73900
O620        O  0.96380384  0.87365789  0.51495422    -0.73900
O621        O  0.93521140  0.86052784  0.52092770    -0.73800
O622        O  0.93307572  0.84279846  0.46855746    -0.73800
O623        O  0.94646786  0.82791658  0.50173215    -0.73800
O624        O  0.92151975  0.87466248  0.48749963    -0.73900
Ni625      Ni  0.96352147  0.86548452  0.48886253     1.25400
Ni626      Ni  0.93308741  0.85092882  0.49496101     1.25400
C627        C  0.93152451  0.88937187  0.48295275     0.88400
C628        C  0.96471619  0.82658232  0.50035490     0.88300
C629        C  0.94674257  0.84732766  0.45708257     0.88400
C630        C  0.94953562  0.87088812  0.52611735     0.88500
O631        O  0.06069844  0.15432977  0.54490638    -0.73800
O632        O  0.03551272  0.20166739  0.53208241    -0.73800
O633        O  0.04427820  0.16862111  0.51317680    -0.73900
O634        O  0.05189110  0.18676255  0.56411349    -0.73900
O635        O  0.07986015  0.19987596  0.55569382    -0.73800
O636        O  0.07236269  0.18114368  0.50428497    -0.73800
O637        O  0.06370498  0.21420539  0.52358519    -0.73800
O638        O  0.08887886  0.16719465  0.53683062    -0.73900
Ni639      Ni  0.04706544  0.17747754  0.53884584     1.25400
Ni640      Ni  0.07718323  0.19108791  0.52970865     1.25400
C641        C  0.07893687  0.15303086  0.54302806     0.88400
C642        C  0.04560753  0.21587156  0.52612129     0.88300
C643        C  0.05729861  0.17122858  0.50053497     0.88400
C644        C  0.06718090  0.19596749  0.56841042     0.88500
O645        O  0.13298566  0.99166231  0.56386423    -0.73800
O646        O  0.17897899  0.00281217  0.53536971    -0.73800
O647        O  0.16350811  0.97077715  0.55178051    -0.73900
O648        O  0.14783575  0.02315933  0.54754513    -0.73900
O649        O  0.16298355  0.03026039  0.57482881    -0.73800
O650        O  0.17930773  0.97750000  0.57877055    -0.73800
O651        O  0.19405726  0.00971531  0.56272010    -0.73800
O652        O  0.14861925  0.99782579  0.59111228    -0.73900
Ni653      Ni  0.15537676  0.99686762  0.54861783     1.25400
Ni654      Ni  0.17182584  0.00410972  0.57779342     1.25400
C655        C  0.13331380  0.99299819  0.58220573     0.88400
C656        C  0.19416094  0.00795060  0.54445155     0.88300
C657        C  0.17368948  0.96539155  0.56608932     0.88400
C658        C  0.15209832  0.03512023  0.56080258     0.88500
O659        O  0.96639200  0.97590831  0.63325551    -0.73800
O660        O  0.97860686  0.00683156  0.67740950    -0.73800
O661        O  0.99767827  0.99499447  0.64547489    -0.73900
O662        O  0.94714051  0.98798153  0.66455885    -0.73900
O663        O  0.95653089  0.96192700  0.68059713    -0.73800
O664        O  0.00778166  0.96881690  0.66084172    -0.73800
O665        O  0.98831263  0.98053381  0.69280749    -0.73800
O666        O  0.97577218  0.94974479  0.64908427    -0.73900
Ni667      Ni  0.97217422  0.99238588  0.65467826     1.25400
Ni668      Ni  0.98250183  0.96433783  0.67143119     1.25400
C669        C  0.96892993  0.95768808  0.63399976     0.88400
C670        C  0.98512585  0.99861779  0.69253883     0.88300
C671        C  0.01086811  0.98289653  0.64935690     0.88400
C672        C  0.94338358  0.97373646  0.67545420     0.88500
O673        O  0.72658752  0.64165193  0.81570795    -0.73800
O674        O  0.73676028  0.59404380  0.78996640    -0.73800
O675        O  0.70576820  0.60995358  0.80717300    -0.73900
O676        O  0.75730489  0.62619141  0.79855383    -0.73900
O677        O  0.76657081  0.61290430  0.82616151    -0.73800
O678        O  0.71464566  0.59670200  0.83491923    -0.73800
O679        O  0.74543104  0.58084535  0.81779063    -0.73800
O680        O  0.73523243  0.62841854  0.84353721    -0.73900
Ni681      Ni  0.73132916  0.61835723  0.80183325     1.25400
Ni682      Ni  0.74085324  0.60421758  0.83157617     1.25400
C683        C  0.72920089  0.64283746  0.83386120     0.88400
C684        C  0.74231778  0.57948229  0.79973808     0.88300
C685        C  0.70168726  0.60081571  0.82256102     0.88400
C686        C  0.77022657  0.62289430  0.81115181     0.88500
O687        O  0.88588900  0.71676742  0.78963949    -0.73800
O688        O  0.93285160  0.74434705  0.78066632    -0.73800
O689        O  0.90088227  0.73565344  0.75973606    -0.73900
O690        O  0.91706307  0.72552953  0.81086957    -0.73900
O691        O  0.93145462  0.69853644  0.80153745    -0.73800
O692        O  0.91464465  0.70857468  0.74972962    -0.73800
O693        O  0.94678647  0.71723000  0.77104683    -0.73800
O694        O  0.90011107  0.68958518  0.78053652    -0.73900
Ni695      Ni  0.90877807  0.73156750  0.78553259     1.25400
Ni696      Ni  0.92381959  0.70255646  0.77526593     1.25400
C697        C  0.88536098  0.69862408  0.78666435     0.88400
C698        C  0.94771516  0.73519592  0.77483756     0.88300
C699        C  0.90417133  0.72339188  0.74651752     0.88400
C700        C  0.92647512  0.71028319  0.81479432     0.88500
O701        O  0.62742154  0.82135520  0.73036569    -0.73800
O702        O  0.57915180  0.79535626  0.73766241    -0.73800
O703        O  0.59770583  0.81171639  0.70741095    -0.73900
O704        O  0.60979648  0.80474650  0.76013029    -0.73900
O705        O  0.59646137  0.83287787  0.76753826    -0.73800
O706        O  0.58295009  0.83927045  0.71425482    -0.73800
O707        O  0.56568420  0.82337615  0.74516311    -0.73800
O708        O  0.61304921  0.84927344  0.73653757    -0.73900
Ni709      Ni  0.60390409  0.80723979  0.73365783     1.25400
Ni710      Ni  0.58895455  0.83715184  0.74115597     1.25400
C711        C  0.62806749  0.83965045  0.73234470     0.88400
C712        C  0.56440384  0.80528219  0.74248147     0.88300
C713        C  0.58871062  0.82674404  0.70204829     0.88400
C714        C  0.60627246  0.81803200  0.77225415     0.88500
O715        O  0.70253507  0.80284626  0.88698235    -0.73800
O716        O  0.73064216  0.79500774  0.93391273    -0.73800
O717        O  0.72025706  0.77286292  0.90309580    -0.73900
O718        O  0.71297044  0.82521485  0.91675493    -0.73900
O719        O  0.68600500  0.81792659  0.93235478    -0.73800
O720        O  0.69295835  0.76479971  0.91770880    -0.73800
O721        O  0.70334317  0.78713264  0.94857996    -0.73800
O722        O  0.67524295  0.79594397  0.90221805    -0.73900
Ni723      Ni  0.71760683  0.79920780  0.90976693     1.25400
Ni724      Ni  0.68845213  0.79108301  0.92582429     1.25400
C725        C  0.68425814  0.80082256  0.88699269     0.88400
C726        C  0.72143643  0.79023151  0.94914519     0.88300
C727        C  0.70741942  0.76041208  0.90715237     0.88400
C728        C  0.69823088  0.83034585  0.92635525     0.88500
O729        O  0.80620989  0.73953901  0.63258714    -0.73800
O730        O  0.77855652  0.75107743  0.58614222    -0.73800
O731        O  0.79803768  0.72008343  0.59978971    -0.73900
O732        O  0.78671294  0.76994013  0.61938568    -0.73900
O733        O  0.81368515  0.78122973  0.60633158    -0.73800
O734        O  0.82473746  0.73124734  0.58612783    -0.73800
O735        O  0.80559535  0.76241708  0.57333702    -0.73800
O736        O  0.83319738  0.75009060  0.61894672    -0.73900
Ni737      Ni  0.79137473  0.74472797  0.60988428     1.25400
Ni738      Ni  0.82022308  0.75666395  0.59569396     1.25400
C739        C  0.82423259  0.74313452  0.63336108     0.88400
C740        C  0.78770033  0.75863770  0.57204405     0.88300
C741        C  0.81329838  0.71736680  0.58994395     0.88400
C742        C  0.79860040  0.78363181  0.61655195     0.88500
O743        O  0.78659113  0.89595850  0.71469880    -0.73800
O744        O  0.78009924  0.94151359  0.74470958    -0.73800
O745        O  0.75750716  0.91139371  0.73415965    -0.73900
O746        O  0.80952685  0.92571178  0.72520048    -0.73900
O747        O  0.80067754  0.94193628  0.69907225    -0.73800
O748        O  0.74826066  0.92729227  0.70795070    -0.73800
O749        O  0.77116195  0.95734491  0.71836308    -0.73800
O750        O  0.77816625  0.91211064  0.68835042    -0.73900
Ni751      Ni  0.78374128  0.91812835  0.73065165     1.25400
Ni752      Ni  0.77419828  0.93527066  0.70251004     1.25400
C753        C  0.78321344  0.89654620  0.69665967     0.88400
C754        C  0.77506224  0.95705064  0.73629457     0.88300
C755        C  0.74449926  0.91624319  0.72217821     0.88400
C756        C  0.81367810  0.93627916  0.71077631     0.88500
O757        O  0.20605373  0.80348270  0.63416169    -0.73800
O758        O  0.23462792  0.79395797  0.58810551    -0.73800
O759        O  0.21818508  0.82547637  0.60429033    -0.73900
O760        O  0.22236009  0.77269805  0.61861909    -0.73900
O761        O  0.19520118  0.76584157  0.60313207    -0.73800
O762        O  0.19105599  0.81909811  0.58859998    -0.73800
O763        O  0.20734744  0.78753993  0.57269210    -0.73800
O764        O  0.17875145  0.79739292  0.61858425    -0.73900
Ni765      Ni  0.22130893  0.79916270  0.61173547     1.25400
Ni766      Ni  0.19214847  0.79224053  0.59511620     1.25400
C767        C  0.18780509  0.80134756  0.63406012     0.88400
C768        C  0.22563155  0.78932363  0.57273972     0.88300
C769        C  0.20380271  0.83109202  0.59435693     0.88400
C770        C  0.20908776  0.76083613  0.61412431     0.88500
O771        O  0.22620942  0.64142185  0.70459352    -0.73800
O772        O  0.23771777  0.59419545  0.73043389    -0.73800
O773        O  0.25791555  0.62572414  0.71913465    -0.73900
O774        O  0.20567339  0.61053590  0.71578536    -0.73900
O775        O  0.21149764  0.59618627  0.68777154    -0.73800
O776        O  0.26416376  0.61203574  0.69085238    -0.73800
O777        O  0.24372489  0.58032575  0.70224422    -0.73800
O778        O  0.23158035  0.62740712  0.67632684    -0.73900
Ni779      Ni  0.23171131  0.61836082  0.71851926     1.25400
Ni780      Ni  0.23802176  0.60340874  0.68830991     1.25400
C781        C  0.22706065  0.64220401  0.68625242     0.88400
C782        C  0.24219296  0.57935068  0.72053851     0.88300
C783        C  0.26927049  0.62239599  0.70515813     0.88400
C784        C  0.19990012  0.60113447  0.70114042     0.88500
O785        O  0.31012147  0.74476261  0.89351452    -0.73800
O786        O  0.28784483  0.75346822  0.94313953    -0.73800
O787        O  0.29754051  0.77594282  0.91282908    -0.73900
O788        O  0.30019575  0.72227121  0.92367071    -0.73900
O789        O  0.32900625  0.72634121  0.93698870    -0.73800
O790        O  0.32705022  0.77998510  0.92460750    -0.73800
O791        O  0.31697245  0.75803825  0.95555562    -0.73800
O792        O  0.33923259  0.74806884  0.90635668    -0.73900
Ni793      Ni  0.29786820  0.74900253  0.91787548     1.25400
Ni794      Ni  0.32909738  0.75330043  0.93134149     1.25400
C795        C  0.32843062  0.74483957  0.89184780     0.88400
C796        C  0.29876330  0.75685261  0.95756088     0.88300
C797        C  0.31204712  0.78661128  0.91633874     0.88400
C798        C  0.31490858  0.71549600  0.93228622     0.88500
O799        O  0.37936623  0.72223872  0.72960524    -0.73800
O800        O  0.42677333  0.74813854  0.74163841    -0.73800
O801        O  0.41024128  0.73404124  0.70939416    -0.73900
O802        O  0.39498421  0.73680175  0.76172645    -0.73900
O803        O  0.40919589  0.70879221  0.76794224    -0.73800
O804        O  0.42422404  0.70578459  0.71483648    -0.73800
O805        O  0.44044767  0.71973980  0.74709296    -0.73800
O806        O  0.39369347  0.69424125  0.73549192    -0.73900
Ni807      Ni  0.40240755  0.73637117  0.73547307     1.25400
Ni808      Ni  0.41743019  0.70617448  0.74161697     1.25400
C809        C  0.37895442  0.70384298  0.73039292     0.88400
C810        C  0.44159248  0.73797314  0.74571269     0.88300
C811        C  0.41933045  0.71933465  0.70335032     0.88400
C812        C  0.39887297  0.72307793  0.77322136     0.88500
O813        O  0.13702267  0.81427219  0.79509305    -0.73800
O814        O  0.09076572  0.78463960  0.78845141    -0.73800
O815        O  0.12057863  0.79543552  0.76573301    -0.73900
O816        O  0.10797995  0.80343566  0.81832918    -0.73900
O817        O  0.09185560  0.82998664  0.81071781    -0.73800
O818        O  0.10479109  0.82203054  0.75754830    -0.73800
O819        O  0.07520314  0.81144731  0.78064543    -0.73800
O820        O  0.12099869  0.84091173  0.78755520    -0.73900
Ni821      Ni  0.11456149  0.79845799  0.79219727     1.25400
Ni822      Ni  0.09758648  0.82700640  0.78382508     1.25400
C823        C  0.13656248  0.83247385  0.79236536     0.88400
C824        C  0.07533722  0.79327126  0.78329478     0.88300
C825        C  0.11534515  0.80763572  0.75308134     0.88400
C826        C  0.09834854  0.81822440  0.82330741     0.88500
O827        O  0.29331558  0.89829161  0.81959257    -0.73800
O828        O  0.28225111  0.94266753  0.78911250    -0.73800
O829        O  0.31256536  0.93022592  0.80977314    -0.73900
O830        O  0.26290444  0.91013471  0.79896396    -0.73900
O831        O  0.25085393  0.92563986  0.82424054    -0.73800
O832        O  0.30132861  0.94468458  0.83600881    -0.73800
O833        O  0.27142569  0.95768898  0.81520312    -0.73800
O834        O  0.28104990  0.91280238  0.84533175    -0.73900
Ni835      Ni  0.28809355  0.91984233  0.80340073     1.25400
Ni836      Ni  0.27567077  0.93574935  0.83110266     1.25400
C837        C  0.28922412  0.89833359  0.83750273     0.88400
C838        C  0.27565375  0.95772162  0.79733409     0.88300
C839        C  0.31524775  0.94046301  0.82476994     0.88400
C840        C  0.24882584  0.91418765  0.80998986     0.88500
O841        O  0.13188100  0.72428062  0.29818193    -0.73800
O842        O  0.08504251  0.75195823  0.28919841    -0.73800
O843        O  0.10124276  0.73419949  0.31981686    -0.73900
O844        O  0.11636599  0.74212167  0.26795702    -0.73900
O845        O  0.10233525  0.71467673  0.25930458    -0.73800
O846        O  0.08610958  0.70720629  0.31157594    -0.73800
O847        O  0.07078487  0.72463401  0.28057650    -0.73800
O848        O  0.11718026  0.69690903  0.29045266    -0.73900
Ni849      Ni  0.10905853  0.73914080  0.29407171     1.25400
Ni850      Ni  0.09352422  0.70990794  0.28513202     1.25400
C851        C  0.13224602  0.70606127  0.29563750     0.88400
C852        C  0.07008874  0.74272758  0.28369506     0.88300
C853        C  0.09134420  0.71942159  0.32430848     0.88400
C854        C  0.11280085  0.72930952  0.25532961     0.88500
O855        O  0.29351408  0.64775062  0.30662408    -0.73800
O856        O  0.27895592  0.60137572  0.28036169    -0.73800
O857        O  0.26033949  0.63358879  0.29272009    -0.73900
O858        O  0.31222669  0.61642317  0.29406395    -0.73900
O859        O  0.30671376  0.60186988  0.32204717    -0.73800
O860        O  0.25430491  0.61909154  0.32062609    -0.73800
O861        O  0.27353054  0.58726146  0.30856084    -0.73800
O862        O  0.28786376  0.63328343  0.33460116    -0.73900
Ni863      Ni  0.28637684  0.62521350  0.29238369     1.25400
Ni864      Ni  0.28034209  0.60984030  0.32243412     1.25400
C865        C  0.29321593  0.64801747  0.32501667     0.88400
C866        C  0.27437048  0.58652067  0.29026097     0.88300
C867        C  0.24899040  0.62976506  0.30661242     0.88400
C868        C  0.31813795  0.60676386  0.30847227     0.88500
O869        O  0.21153016  0.73956411  0.14168942    -0.73800
O870        O  0.23886370  0.74702857  0.09423632    -0.73800
O871        O  0.22789833  0.76954100  0.12435446    -0.73900
O872        O  0.22246098  0.71645373  0.11233627    -0.73900
O873        O  0.19515778  0.72252046  0.09680917    -0.73800
O874        O  0.20011167  0.77592710  0.10976624    -0.73800
O875        O  0.21112855  0.75349795  0.07969715    -0.73800
O876        O  0.18391041  0.74488336  0.12639396    -0.73900
Ni877      Ni  0.22623196  0.74290544  0.11858184     1.25400
Ni878      Ni  0.19663746  0.74945087  0.10256144     1.25400
C879        C  0.19322216  0.74122094  0.14176305     0.88400
C880        C  0.22934787  0.75147032  0.07910575     0.88300
C881        C  0.21445844  0.78119669  0.11999630     0.88400
C882        C  0.20783587  0.71066436  0.10288143     0.88500
O883        O  0.30647469  0.80657721  0.38591901    -0.73800
O884        O  0.27759757  0.79522589  0.43130595    -0.73800
O885        O  0.29518372  0.82705710  0.41675262    -0.73900
O886        O  0.28949761  0.77503707  0.39957834    -0.73900
O887        O  0.31625844  0.76696849  0.41516885    -0.73800
O888        O  0.32212102  0.81907449  0.43202777    -0.73800
O889        O  0.30461192  0.78749786  0.44656015    -0.73800
O890        O  0.33349935  0.79882013  0.40122677    -0.73900
Ni891      Ni  0.29113036  0.80121666  0.40797818     1.25400
Ni892      Ni  0.32000670  0.79274041  0.42437105     1.25400
C893        C  0.32469689  0.80447249  0.38613246     0.88400
C894        C  0.28640196  0.78991412  0.44655772     0.88300
C895        C  0.31004839  0.83176787  0.42651471     0.88400
C896        C  0.30253872  0.76277170  0.40368620     0.88500
O897        O  0.38796563  0.82323560  0.23028847    -0.73800
O898        O  0.43559534  0.79798413  0.24142497    -0.73800
O899        O  0.40299776  0.80639366  0.26120794    -0.73900
O900        O  0.42011153  0.81472439  0.20990393    -0.73900
O901        O  0.43339081  0.84249207  0.21873767    -0.73800
O902        O  0.41597138  0.83423596  0.27034743    -0.73800
O903        O  0.44840766  0.82599811  0.25018938    -0.73800
O904        O  0.40121470  0.85115562  0.23873847    -0.73900
Ni905      Ni  0.41128982  0.80954069  0.23538712     1.25400
Ni906      Ni  0.42522431  0.83944693  0.24484822     1.25400
C907        C  0.38676823  0.84137705  0.23300945     0.88400
C908        C  0.44991346  0.80795851  0.24731783     0.88300
C909        C  0.40591884  0.81925563  0.27395162     0.88400
C910        C  0.42953409  0.82996323  0.20583845     0.88500
O911        O  0.22668301  0.89990018  0.21189701    -0.73800
O912        O  0.23864874  0.94720456  0.23747780    -0.73800
O913        O  0.20700814  0.93218460  0.22037733    -0.73900
O914        O  0.25795953  0.91434039  0.22902637    -0.73900
O915        O  0.26757278  0.92766057  0.20153990    -0.73800
O916        O  0.21594371  0.94481406  0.19236460    -0.73800
O917        O  0.24720958  0.96010465  0.20946572    -0.73800
O918        O  0.23613168  0.91272710  0.18413520    -0.73900
Ni919      Ni  0.23227737  0.92303405  0.22572087     1.25400
Ni920      Ni  0.24209790  0.93682146  0.19590141     1.25400
C921        C  0.22953967  0.89855182  0.19379202     0.88400
C922        C  0.24450503  0.96156132  0.22755396     0.88300
C923        C  0.20294330  0.94104580  0.20482186     0.88400
C924        C  0.27097580  0.91751899  0.21651257     0.88500
O925        O  0.63172554  0.22022048  0.78517791    -0.73800
O926        O  0.58293978  0.24482949  0.77680505    -0.73800
O927        O  0.60226540  0.23126596  0.80803927    -0.73900
O928        O  0.61291301  0.23426549  0.75422169    -0.73900
O929        O  0.60044538  0.20507572  0.74994181    -0.73800
O930        O  0.58757197  0.20316131  0.80374016    -0.73800
O931        O  0.56972949  0.21611180  0.77176618    -0.73800
O932        O  0.61745740  0.19170545  0.78215271    -0.73900
Ni933      Ni  0.60790761  0.23370765  0.78120149     1.25400
Ni934      Ni  0.59326403  0.20304066  0.77668530     1.25400
C935        C  0.63241801  0.20181440  0.78528289     0.88400
C936        C  0.56825536  0.23435091  0.77302267     0.88300
C937        C  0.59334274  0.21670554  0.81482063     0.88400
C938        C  0.60907763  0.21997729  0.74337608     0.88500
O939        O  0.71743745  0.40047274  0.70827859    -0.73800
O940        O  0.73007587  0.44674937  0.73534065    -0.73800
O941        O  0.69948039  0.43406714  0.71526874    -0.73900
O942        O  0.74765036  0.41272543  0.72856388    -0.73900
O943        O  0.76055629  0.42459690  0.70179243    -0.73800
O944        O  0.71157573  0.44699358  0.68860879    -0.73800
O945        O  0.74266656  0.45892426  0.70855568    -0.73800
O946        O  0.72930202  0.41308933  0.68134888    -0.73900
Ni947      Ni  0.72322486  0.42315709  0.72280321     1.25400
Ni948      Ni  0.73655489  0.43637653  0.69411493     1.25400
C949        C  0.72140869  0.39916909  0.69038222     0.88400
C950        C  0.73819076  0.46056181  0.72628232     0.88300
C951        C  0.69738134  0.44379381  0.69986976     0.88400
C952        C  0.76186089  0.41448450  0.71717573     0.88500
O953        O  0.70228871  0.23822821  0.62776058    -0.73800
O954        O  0.73165053  0.25286160  0.58322521    -0.73800
O955        O  0.72016095  0.27073532  0.61630418    -0.73900
O956        O  0.71380275  0.22046006  0.59549520    -0.73900
O957        O  0.68645769  0.22941340  0.58153508    -0.73800
O958        O  0.69401928  0.28065861  0.60076374    -0.73800
O959        O  0.70452562  0.26117541  0.56847975    -0.73800
O960        O  0.67566999  0.24879140  0.61353196    -0.73900
Ni961      Ni  0.71799150  0.24532730  0.60616615     1.25400
Ni962      Ni  0.68925005  0.25541810  0.59052834     1.25400
C963        C  0.68411428  0.24106495  0.62789973     0.88400
C964        C  0.72270017  0.25866454  0.56821320     0.88300
C965        C  0.70794186  0.28384035  0.61235320     0.88400
C966        C  0.69883719  0.21644827  0.58565380     0.88500
O967        O  0.78834638  0.14609883  0.81355214    -0.73800
O968        O  0.78340150  0.09873179  0.78623377    -0.73800
O969        O  0.76028392  0.12900199  0.79386861    -0.73900
O970        O  0.81180411  0.11619482  0.80586952    -0.73900
O971        O  0.80231755  0.10123812  0.83253155    -0.73800
O972        O  0.75008510  0.11478852  0.82068607    -0.73800
O973        O  0.77348090  0.08426737  0.81301444    -0.73800
O974        O  0.77919321  0.13142778  0.84051446    -0.73900
Ni975      Ni  0.78630127  0.12294103  0.79892499     1.25400
Ni976      Ni  0.77585960  0.10735879  0.82764832     1.25400
C977        C  0.78451566  0.14653178  0.83150118     0.88400
C978        C  0.77789617  0.08366345  0.79520396     0.88300
C979        C  0.74684176  0.12483714  0.80560141     0.88400
C980        C  0.81564087  0.10668864  0.82107509     0.88500
O981        O  0.87713598  0.31919875  0.72859050    -0.73800
O982        O  0.92350064  0.28972917  0.73680701    -0.73800
O983        O  0.89286142  0.30090824  0.75859880    -0.73900
O984        O  0.90680085  0.30775610  0.70622480    -0.73900
O985        O  0.92314441  0.33423937  0.71374203    -0.73800
O986        O  0.90858925  0.32761416  0.76669210    -0.73800
O987        O  0.93901730  0.31659810  0.74457875    -0.73800
O988        O  0.89350949  0.34577714  0.73574970    -0.73900
Ni989      Ni  0.89961435  0.30337208  0.73229283     1.25400
Ni990      Ni  0.91666646  0.33196032  0.74051127     1.25400
C991        C  0.87792971  0.33748005  0.73077477     0.88400
C992        C  0.93896241  0.29843756  0.74194020     0.88300
C993        C  0.89760857  0.31347744  0.77106248     0.88400
C994        C  0.91686772  0.32225634  0.70123609     0.88500
O995        O  0.80514128  0.30571966  0.88953719    -0.73800
O996        O  0.77711395  0.29690349  0.93614322    -0.73800
O997        O  0.79660338  0.32701035  0.92073947    -0.73900
O998        O  0.78597538  0.27594692  0.90421929    -0.73900
O999        O  0.81257235  0.26567262  0.91874853    -0.73800
O1000       O  0.82349222  0.31710780  0.93496926    -0.73800
O1001       O  0.80401757  0.28725176  0.95046040    -0.73800
O1002       O  0.83203610  0.29579697  0.90374674    -0.73900
Ni1003     Ni  0.79020918  0.30174812  0.91226647     1.25400
Ni1004     Ni  0.81894499  0.29104212  0.92755971     1.25400
C1005       C  0.82311419  0.30199861  0.88892133     0.88400
C1006       C  0.78601999  0.29095221  0.95110345     0.88300
C1007       C  0.81200963  0.33056465  0.93007262     0.88400
C1008       C  0.79797346  0.26260624  0.90799783     0.88500
O1009       O  0.28700148  0.14545730  0.71655266    -0.73800
O1010       O  0.28022713  0.09919606  0.74535025    -0.73800
O1011       O  0.31026793  0.11641826  0.72744565    -0.73900
O1012       O  0.25715473  0.12894428  0.73418966    -0.73900
O1013       O  0.24991950  0.11332603  0.70719244    -0.73800
O1014       O  0.30319507  0.10033954  0.70069986    -0.73800
O1015       O  0.27308453  0.08355899  0.71835832    -0.73800
O1016       O  0.28026806  0.12965474  0.68952935    -0.73900
Ni1017     Ni  0.28390646  0.12296664  0.73189722     1.25400
Ni1018     Ni  0.27632373  0.10608955  0.70302826     1.25400
C1019       C  0.28451309  0.14518398  0.69836653     0.88400
C1020       C  0.27590000  0.08366661  0.73650456     0.88300
C1021       C  0.31552113  0.10656335  0.71285761     0.88400
C1022       C  0.24500629  0.12405043  0.72131193     0.88500
O1023       O  0.12695904  0.21756559  0.73006305    -0.73800
O1024       O  0.08140283  0.24666072  0.74166359    -0.73800
O1025       O  0.11308287  0.23478121  0.76166577    -0.73900
O1026       O  0.09597268  0.22940685  0.71003218    -0.73900
O1027       O  0.08116473  0.20209990  0.71779452    -0.73800
O1028       O  0.09727461  0.20825224  0.77015063    -0.73800
O1029       O  0.06607303  0.21955838  0.74897741    -0.73800
O1030       O  0.11202321  0.19063302  0.73872631    -0.73900
Ni1031     Ni  0.10482230  0.23310166  0.73564439     1.25400
Ni1032     Ni  0.08854084  0.20419964  0.74424557     1.25400
C1033       C  0.12705250  0.19933039  0.73260984     0.88400
C1034       C  0.06600881  0.23780777  0.74658164     0.88300
C1035       C  0.10866068  0.22211792  0.77419943     0.88400
C1036       C  0.08608443  0.21468773  0.70531463     0.88500
O1037       O  0.30375117  0.30323107  0.63894646    -0.73800
O1038       O  0.27431222  0.29484015  0.59338590    -0.73800
O1039       O  0.28339611  0.27397095  0.62493171    -0.73900
O1040       O  0.29470857  0.32462767  0.60778298    -0.73900
O1041       O  0.32059640  0.31394764  0.59233023    -0.73800
O1042       O  0.30948852  0.26292572  0.61000669    -0.73800
O1043       O  0.30039006  0.28375826  0.57853481    -0.73800
O1044       O  0.32998547  0.29302582  0.62366922    -0.73900
Ni1045     Ni  0.28808119  0.29957627  0.61671562     1.25400
Ni1046     Ni  0.31604617  0.28801619  0.60056552     1.25400
C1047       C  0.32165839  0.29925277  0.63878258     0.88400
C1048       C  0.28253473  0.28792172  0.57847660     0.88300
C1049       C  0.29485631  0.26028770  0.62081260     0.88400
C1050       C  0.30953322  0.32772111  0.59740694     0.88500
O1051       O  0.38601297  0.32028694  0.79603788    -0.73800
O1052       O  0.43250359  0.29361540  0.78305530    -0.73800
O1053       O  0.41873047  0.31121350  0.81501806    -0.73900
O1054       O  0.39934836  0.30279583  0.76448757    -0.73900
O1055       O  0.41215234  0.33050930  0.75481134    -0.73800
O1056       O  0.43237662  0.33850469  0.80530053    -0.73800
O1057       O  0.44532369  0.32122643  0.77317119    -0.73800
O1058       O  0.39947922  0.34794016  0.78710900    -0.73900
Ni1059     Ni  0.40874904  0.30594872  0.78998705     1.25400
Ni1060     Ni  0.42283469  0.33549034  0.77972058     1.25400
C1061       C  0.38511497  0.33849423  0.79358603     0.88400
C1062       C  0.44666247  0.30315449  0.77615307     0.88300
C1063       C  0.42854179  0.32635223  0.81853485     0.88400
C1064       C  0.40193051  0.31557217  0.75155784     0.88500
O1065       O  0.22651449  0.39856641  0.81196395    -0.73800
O1066       O  0.23789196  0.44535349  0.78509172    -0.73800
O1067       O  0.25796413  0.41328470  0.79560028    -0.73900
O1068       O  0.20611143  0.42995770  0.80153827    -0.73900
O1069       O  0.21387206  0.44444971  0.82899145    -0.73800
O1070       O  0.26602017  0.42730530  0.82322960    -0.73800
O1071       O  0.24577680  0.45931819  0.81276836    -0.73800
O1072       O  0.23381328  0.41282310  0.83967613    -0.73900
Ni1073     Ni  0.23188782  0.42138188  0.79752186     1.25400
Ni1074     Ni  0.24020526  0.43651702  0.82712782     1.25400
C1075       C  0.22833857  0.39802243  0.83024372     0.88400
C1076       C  0.24327451  0.46018470  0.79459313     0.88300
C1077       C  0.27025291  0.41671813  0.80879187     0.88400
C1078       C  0.20138040  0.43975526  0.81632679     0.88500
O1079       O  0.20365695  0.23824835  0.89021830    -0.73800
O1080       O  0.22976617  0.25326581  0.93641161    -0.73800
O1081       O  0.21510093  0.22016324  0.92241369    -0.73900
O1082       O  0.21859447  0.27109070  0.90345339    -0.73900
O1083       O  0.19064316  0.27855628  0.91712252    -0.73800
O1084       O  0.18690324  0.22662979  0.93607203    -0.73800
O1085       O  0.20148876  0.25981828  0.94984282    -0.73800
O1086       O  0.17554143  0.24501451  0.90391660    -0.73900
Ni1087     Ni  0.21779841  0.24549252  0.91272189     1.25400
Ni1088     Ni  0.18764914  0.25283773  0.92727572     1.25400
C1089       C  0.18530875  0.23920535  0.88951725     0.88400
C1090       C  0.21974708  0.25848144  0.95093637     0.88300
C1091       C  0.20036053  0.21480315  0.93187222     0.88400
C1092       C  0.20506042  0.28301748  0.90654505     0.88500
O1093       O  0.30384473  0.24159881  0.13361293    -0.73800
O1094       O  0.27947774  0.25411011  0.08585160    -0.73800
O1095       O  0.29395685  0.22165607  0.10162055    -0.73900
O1096       O  0.28938532  0.27350515  0.11824275    -0.73900
O1097       O  0.31812074  0.28036902  0.10594340    -0.73800
O1098       O  0.32206454  0.22836077  0.08786946    -0.73800
O1099       O  0.30792989  0.26136749  0.07316026    -0.73800
O1100       O  0.33240154  0.24732850  0.12033308    -0.73900
Ni1101     Ni  0.29062281  0.24746903  0.11018641     1.25400
Ni1102     Ni  0.32113465  0.25461609  0.09630381     1.25400
C1103       C  0.32213324  0.24279323  0.13488158     0.88400
C1104       C  0.28971743  0.25966079  0.07160348     0.88300
C1105       C  0.30875729  0.21639356  0.09215773     0.88400
C1106       C  0.30334085  0.28516623  0.11577527     0.88500
O1107       O  0.29260974  0.39787578  0.21474847    -0.73800
O1108       O  0.28255442  0.44340708  0.24406628    -0.73800
O1109       O  0.26169313  0.41265561  0.23200579    -0.73900
O1110       O  0.31399130  0.42810550  0.22660323    -0.73900
O1111       O  0.30655092  0.44412601  0.19992320    -0.73800
O1112       O  0.25400245  0.42805853  0.20501806    -0.73800
O1113       O  0.27490903  0.45867163  0.21701257    -0.73800
O1114       O  0.28582838  0.41370129  0.18773571    -0.73900
Ni1115     Ni  0.28799391  0.42003136  0.23036005     1.25400
Ni1116     Ni  0.28004732  0.43674583  0.20149420     1.25400
C1117       C  0.29066667  0.39831879  0.19648711     0.88400
C1118       C  0.27705605  0.45858029  0.23524294     0.88300
C1119       C  0.24941307  0.41720123  0.21914340     0.88400
C1120       C  0.31896215  0.43838156  0.21221308     0.88500
O1121       O  0.22348496  0.14203344  0.31601621    -0.73800
O1122       O  0.23554270  0.09510517  0.28997664    -0.73800
O1123       O  0.20408765  0.10950432  0.30761656    -0.73900
O1124       O  0.25452895  0.12812187  0.29835208    -0.73900
O1125       O  0.26459383  0.11528843  0.32591261    -0.73800
O1126       O  0.21366782  0.09621626  0.33511239    -0.73800
O1127       O  0.24533597  0.08230434  0.31761841    -0.73800
O1128       O  0.23270804  0.12886475  0.34371305    -0.73900
Ni1129     Ni  0.22906839  0.11906574  0.30197991     1.25400
Ni1130     Ni  0.23947056  0.10517386  0.33156712     1.25400
C1131       C  0.22620452  0.14312173  0.33415055     0.88400
C1132       C  0.24227586  0.08092799  0.29957677     0.88300
C1133       C  0.20046700  0.10003802  0.32291472     0.88400
C1134       C  0.26765934  0.12538386  0.31083453     0.88500
O1135       O  0.37942787  0.22499951  0.29586740    -0.73800
O1136       O  0.42481235  0.25470761  0.28574995    -0.73800
O1137       O  0.39322336  0.24361221  0.26528497    -0.73900
O1138       O  0.41035574  0.23599417  0.31687277    -0.73900
O1139       O  0.42591694  0.20951682  0.30796111    -0.73800
O1140       O  0.40862425  0.21712739  0.25609164    -0.73800
O1141       O  0.44008026  0.22801420  0.27697759    -0.73800
O1142       O  0.39498547  0.19840054  0.28723737    -0.73900
Ni1143     Ni  0.40149916  0.24082368  0.29126541     1.25400
Ni1144     Ni  0.41799555  0.21236169  0.28170216     1.25400
C1145       C  0.37973106  0.20684749  0.29293846     0.88400
C1146       C  0.44004503  0.24613019  0.28002052     0.88300
C1147       C  0.39734945  0.23120019  0.25241392     0.88400
C1148       C  0.42069630  0.22138443  0.32100179     0.88500
O1149       O  0.13134454  0.32498014  0.23108319    -0.73800
O1150       O  0.08593642  0.29601315  0.24235033    -0.73800
O1151       O  0.10049699  0.31301180  0.21064198    -0.73900
O1152       O  0.11716849  0.30801645  0.26242003    -0.73900
O1153       O  0.10216550  0.33516202  0.27032638    -0.73800
O1154       O  0.08485715  0.33990783  0.21806196    -0.73800
O1155       O  0.07099071  0.32317018  0.25022558    -0.73800
O1156       O  0.11609532  0.35222343  0.23808422    -0.73900
Ni1157     Ni  0.10922389  0.30954072  0.23635381     1.25400
Ni1158     Ni  0.09294814  0.33859179  0.24445347     1.25400
C1159       C  0.13130405  0.34326254  0.23301909     0.88400
C1160       C  0.07089327  0.30493466  0.24798835     0.88300
C1161       C  0.08995118  0.32719862  0.20576512     0.88400
C1162       C  0.11292905  0.32092435  0.27473760     0.88500
O1163       O  0.20320096  0.30241000  0.39266831    -0.73800
O1164       O  0.23138205  0.29116005  0.43832154    -0.73800
O1165       O  0.22071739  0.27133337  0.40658554    -0.73900
O1166       O  0.21353249  0.32277027  0.42396392    -0.73900
O1167       O  0.18634705  0.31405706  0.43843536    -0.73800
O1168       O  0.19374967  0.26224659  0.42126276    -0.73800
O1169       O  0.20408228  0.28285293  0.45285220    -0.73800
O1170       O  0.17591379  0.29380680  0.40705690    -0.73900
Ni1171     Ni  0.21821131  0.29722491  0.41495630     1.25400
Ni1172     Ni  0.18907920  0.28787675  0.43047928     1.25400
C1173       C  0.18504013  0.29977822  0.39227692     0.88400
C1174       C  0.22225512  0.28544940  0.45319298     0.88300
C1175       C  0.20813579  0.25853219  0.41044472     0.88400
C1176       C  0.19851785  0.32698445  0.43366568     0.88500
O1177       O  0.70713473  0.30702325  0.14013669    -0.73800
O1178       O  0.73565231  0.29813185  0.09369839    -0.73800
O1179       O  0.71620217  0.32826234  0.10880699    -0.73900
O1180       O  0.72653585  0.27724634  0.12574510    -0.73900
O1181       O  0.69999013  0.26687660  0.11115601    -0.73800
O1182       O  0.68966697  0.31833446  0.09392815    -0.73800
O1183       O  0.70894516  0.28807962  0.07925785    -0.73800
O1184       O  0.68040314  0.29742123  0.12535557    -0.73900
Ni1185     Ni  0.72236907  0.30302068  0.11751967     1.25400
Ni1186     Ni  0.69383015  0.29225713  0.10187544     1.25400
C1187       C  0.68908960  0.30353665  0.14034255     0.88400
C1188       C  0.72688889  0.29198824  0.07870002     0.88300
C1189       C  0.70123105  0.33178646  0.09879157     0.88400
C1190       C  0.71457694  0.26385163  0.12196872     0.88500
O1191       O  0.62627114  0.32802244  0.29823230    -0.73800
O1192       O  0.58077336  0.29939128  0.28695647    -0.73800
O1193       O  0.61309656  0.30934531  0.26731104    -0.73900
O1194       O  0.59457675  0.31815699  0.31784192    -0.73900
O1195       O  0.58019701  0.34506091  0.30816043    -0.73800
O1196       O  0.59852885  0.33589939  0.25699901    -0.73800
O1197       O  0.56623266  0.32618656  0.27729920    -0.73800
O1198       O  0.61209367  0.35487104  0.28815688    -0.73900
Ni1199     Ni  0.60411181  0.31275574  0.29287868     1.25400
Ni1200     Ni  0.58869584  0.34145301  0.28222888     1.25400
C1201       C  0.62671860  0.34610810  0.29502990     0.88400
C1202       C  0.56582231  0.30813290  0.28082204     0.88300
C1203       C  0.60953135  0.32146846  0.25401221     0.88400
C1204       C  0.58466456  0.33314990  0.32142241     0.88500
O1205       O  0.72719864  0.14723787  0.21743785    -0.73800
O1206       O  0.73622828  0.10005105  0.24456286    -0.73800
O1207       O  0.75776386  0.13091307  0.23396985    -0.73900
O1208       O  0.70531420  0.11700869  0.22803005    -0.73900
O1209       O  0.71224788  0.10194630  0.20065215    -0.73800
O1210       O  0.76509867  0.11640020  0.20638640    -0.73800
O1211       O  0.74340194  0.08559377  0.21695232    -0.73800
O1212       O  0.73379777  0.13249613  0.18982234    -0.73900
Ni1213     Ni  0.73139627  0.12422126  0.23202547     1.25400
Ni1214     Ni  0.73891841  0.10853543  0.20248810     1.25400
C1215       C  0.72912877  0.14763296  0.19915441     0.88400
C1216       C  0.74108081  0.08498903  0.23516182     0.88300
C1217       C  0.76984049  0.12673963  0.22083228     0.88400
C1218       C  0.70007153  0.10750212  0.21325234     0.88500
O1219       O  0.88805695  0.22024981  0.22698222    -0.73800
O1220       O  0.93636155  0.24467273  0.23761620    -0.73800
O1221       O  0.91949985  0.22904751  0.20605252    -0.73900
O1222       O  0.90411797  0.23597048  0.25810386    -0.73900
O1223       O  0.91710127  0.20779279  0.26602983    -0.73800
O1224       O  0.93235096  0.20072080  0.21359702    -0.73800
O1225       O  0.94896516  0.21615227  0.24482519    -0.73800
O1226       O  0.90106495  0.19194375  0.23438896    -0.73900
Ni1227     Ni  0.91165264  0.23356604  0.23193504     1.25400
Ni1228     Ni  0.92536690  0.20318581  0.24003571     1.25400
C1229       C  0.88671179  0.20202649  0.22906914     0.88400
C1230       C  0.95070776  0.23426494  0.24259909     0.88300
C1231       C  0.92805750  0.21356695  0.20118024     0.88400
C1232       C  0.90732023  0.22274145  0.27039490     0.88500
O1233       O  0.81472678  0.23826963  0.38844341    -0.73800
O1234       O  0.78849259  0.24849803  0.43574171    -0.73800
O1235       O  0.79565840  0.26850226  0.40298759    -0.73900
O1236       O  0.80755875  0.21813723  0.42088057    -0.73900
O1237       O  0.83462237  0.22889849  0.43415686    -0.73800
O1238       O  0.82286398  0.27951180  0.41574468    -0.73800
O1239       O  0.81570850  0.25939558  0.44855545    -0.73800
O1240       O  0.84207194  0.24864100  0.40144106    -0.73900
Ni1241     Ni  0.80063381  0.24297541  0.41159905     1.25400
Ni1242     Ni  0.82978775  0.25455683  0.42541751     1.25400
C1243       C  0.83272991  0.24171994  0.38719255     0.88400
C1244       C  0.79785099  0.25535145  0.45003060     0.88300
C1245       C  0.80745179  0.28223469  0.40607355     0.88400
C1246       C  0.82292689  0.21520223  0.43048887     0.88500
O1247       O  0.78637393  0.39846165  0.31397923    -0.73800
O1248       O  0.77885661  0.44498698  0.28524897    -0.73800
O1249       O  0.80930387  0.42802024  0.30263472    -0.73900
O1250       O  0.75642015  0.41499299  0.29660845    -0.73900
O1251       O  0.74943760  0.43013642  0.32395543    -0.73800
O1252       O  0.80247001  0.44422789  0.32935768    -0.73800
O1253       O  0.77161301  0.46022006  0.31242681    -0.73800
O1254       O  0.78046110  0.41429484  0.34116847    -0.73900
Ni1255     Ni  0.78300553  0.42112018  0.29862139     1.25400
Ni1256     Ni  0.77572598  0.43780576  0.32767197     1.25400
C1257       C  0.78441513  0.39873720  0.33225771     0.88400
C1258       C  0.77413998  0.46033648  0.29424408     0.88300
C1259       C  0.81461445  0.43831819  0.31688660     0.88400
C1260       C  0.74443239  0.41975228  0.30962844     0.88500
O1261       O  0.81064882  0.80375368  0.13223301    -0.73800
O1262       O  0.78438278  0.79346463  0.08484270    -0.73800
O1263       O  0.79521525  0.77239410  0.11628639    -0.73900
O1264       O  0.79974561  0.82492314  0.10165147    -0.73900
O1265       O  0.82780772  0.81898240  0.08752489    -0.73800
O1266       O  0.82302476  0.76561156  0.10201778    -0.73800
O1267       O  0.81244845  0.78742609  0.07079767    -0.73800
O1268       O  0.83869277  0.79754470  0.11816929    -0.73900
Ni1269     Ni  0.79648865  0.79880149  0.10915945     1.25400
Ni1270     Ni  0.82647650  0.79208711  0.09405867     1.25400
C1271       C  0.82895034  0.80224631  0.13301578     0.88400
C1272       C  0.79420935  0.78941188  0.06981261     0.88300
C1273       C  0.80862839  0.76054078  0.11235607     0.88400
C1274       C  0.81456325  0.83074180  0.09254329     0.88500
O1275       O  0.72034238  0.89519588  0.30809128    -0.73800
O1276       O  0.73264854  0.94172196  0.28131676    -0.73800
O1277       O  0.75241825  0.90991925  0.29310629    -0.73900
O1278       O  0.70016073  0.92635790  0.29666046    -0.73900
O1279       O  0.70668833  0.94063623  0.32453596    -0.73800
O1280       O  0.75931284  0.92459537  0.32070023    -0.73800
O1281       O  0.73885077  0.95607159  0.30922797    -0.73800
O1282       O  0.72699064  0.90961173  0.33588959    -0.73900
Ni1283     Ni  0.72618262  0.91789502  0.29374115     1.25400
Ni1284     Ni  0.73321808  0.93331293  0.32353417     1.25400
C1285       C  0.72200434  0.89470529  0.32637343     0.88400
C1286       C  0.73743509  0.95666894  0.29092412     0.88300
C1287       C  0.76417604  0.91369275  0.30671708     0.88400
C1288       C  0.69470610  0.93580081  0.31144276     0.88500
O1289       O  0.88014696  0.81768647  0.29587851    -0.73800
O1290       O  0.92655014  0.78983280  0.28548480    -0.73800
O1291       O  0.91036730  0.80565398  0.31704804    -0.73900
O1292       O  0.89571293  0.80181334  0.26453855    -0.73900
O1293       O  0.91071616  0.82936023  0.25803525    -0.73800
O1294       O  0.92601263  0.83294129  0.31104336    -0.73800
O1295       O  0.94150079  0.81740627  0.27912515    -0.73800
O1296       O  0.89539773  0.84528563  0.29031019    -0.73900
Ni1297     Ni  0.90273226  0.80274789  0.29093226     1.25400
Ni1298     Ni  0.91897377  0.83222804  0.28435096     1.25400
C1299       C  0.88013118  0.83604498  0.29474797     0.88400
C1300       C  0.94179628  0.79912620  0.28099593     0.88300
C1301       C  0.92044479  0.81988531  0.32276289     0.88400
C1302       C  0.90018015  0.81518781  0.25280748     0.88500
O1303       O  0.78836307  0.64106931  0.20254856    -0.73800
O1304       O  0.77867617  0.59365655  0.22891486    -0.73800
O1305       O  0.80915471  0.60938393  0.21084742    -0.73900
O1306       O  0.75795670  0.62565584  0.22064870    -0.73900
O1307       O  0.74823253  0.61246891  0.19316523    -0.73800
O1308       O  0.79980805  0.59579458  0.18341494    -0.73800
O1309       O  0.76926858  0.58031755  0.20139988    -0.73800
O1310       O  0.77926443  0.62772027  0.17493468    -0.73900
Ni1311     Ni  0.78383681  0.61787303  0.21672217     1.25400
Ni1312     Ni  0.77372811  0.60358227  0.18725695     1.25400
C1313       C  0.78552674  0.64219738  0.18441560     0.88400
C1314       C  0.77284570  0.57903426  0.21938555     0.88300
C1315       C  0.81294339  0.59995452  0.19556943     0.88400
C1316       C  0.74477247  0.62226692  0.20834572     0.88500
O1317       O  0.70466242  0.73465714  0.38905519    -0.73800
O1318       O  0.73112628  0.74914237  0.43548661    -0.73800
O1319       O  0.71399106  0.71688444  0.42218389    -0.73900
O1320       O  0.72222533  0.76667922  0.40152907    -0.73900
O1321       O  0.69484248  0.77675907  0.41471060    -0.73800
O1322       O  0.68610852  0.72617468  0.43482729    -0.73800
O1323       O  0.70309609  0.75818457  0.44796304    -0.73800
O1324       O  0.67711567  0.74457445  0.40193260    -0.73900
Ni1325     Ni  0.71904568  0.74153454  0.41164934     1.25400
Ni1326     Ni  0.68934230  0.75184411  0.42531131     1.25400
C1327       C  0.68646489  0.73723966  0.38797834     0.88400
C1328       C  0.72112009  0.75545887  0.44961821     0.88300
C1329       C  0.69870232  0.71318834  0.43160234     0.88400
C1330       C  0.70972003  0.77974560  0.40431508     0.88500
O1331       O  0.62911607  0.71451318  0.23003639    -0.73800
O1332       O  0.58342646  0.74352548  0.24000807    -0.73800
O1333       O  0.61427293  0.73176875  0.26088805    -0.73900
O1334       O  0.59874463  0.72609256  0.20869692    -0.73900
O1335       O  0.58264886  0.69947214  0.21634296    -0.73800
O1336       O  0.59914683  0.70456402  0.26856824    -0.73800
O1337       O  0.56835268  0.71641213  0.24794275    -0.73800
O1338       O  0.61341544  0.68738338  0.23673488    -0.73900
Ni1339     Ni  0.60687428  0.72998456  0.23462363     1.25400
Ni1340     Ni  0.59030814  0.70101433  0.24268318     1.25400
C1341       C  0.62877107  0.69624031  0.23194810     0.88400
C1342       C  0.56831027  0.73460939  0.24554181     0.88300
C1343       C  0.60990287  0.71877076  0.27307992     0.88400
C1344       C  0.58818733  0.71183406  0.20392723     0.88500
C1345       C  0.66577837  0.72480731  0.33863936     0.16600
C1346       C  0.66296291  0.72152319  0.31908001    -0.32400
C1347       C  0.64407009  0.72099117  0.31236291     0.21000
C1348       C  0.62849146  0.72303628  0.32456248     0.03200
C1349       C  0.63130890  0.72629447  0.34423615    -0.22200
C1350       C  0.65032369  0.72737273  0.35088809     0.12400
S1351       S  0.68771276  0.72701609  0.34924931    -0.05800
C1352       C  0.67605529  0.73197241  0.37039409    -0.09300
C1353       C  0.65616078  0.73154076  0.36919341    -0.25900
S1354       S  0.60668661  0.72209050  0.31321612    -0.03100
C1355       C  0.61895223  0.71950827  0.29195178    -0.16500
C1356       C  0.63866469  0.71911213  0.29366720    -0.14500
H1357       H  0.67500724  0.71994365  0.30940938     0.20800
H1358       H  0.61927251  0.72835468  0.35382369     0.16900
H1359       H  0.64650368  0.73446588  0.38099824     0.19400
H1360       H  0.64853294  0.71771344  0.28174781     0.12700
C1361       C  0.67800532  0.67252133  0.23127868     0.16600
C1362       C  0.69706719  0.66728732  0.23452900    -0.32400
C1363       C  0.70444413  0.65197571  0.22386719     0.21000
C1364       C  0.69345391  0.64229586  0.21040490     0.03200
C1365       C  0.67417639  0.64728102  0.20742128    -0.22200
C1366       C  0.66671155  0.66255977  0.21824458     0.12400
S1367       S  0.66679849  0.69124647  0.24226967    -0.05800
C1368       C  0.64655739  0.68542513  0.22949000    -0.09300
C1369       C  0.64841979  0.66976504  0.21738855    -0.25900
S1370       S  0.70571574  0.62492966  0.19810361    -0.03100
C1371       C  0.72568810  0.63068177  0.21151720    -0.16500
C1372       C  0.72279786  0.64524473  0.22471922    -0.14500
H1373       H  0.70587112  0.67500490  0.24475349     0.20800
H1374       H  0.66547000  0.63977134  0.19696735     0.16900
H1375       H  0.63713279  0.66422644  0.20825645     0.19400
H1376       H  0.73378018  0.65109990  0.23403187     0.12700
C1377       C  0.81531901  0.89276104  0.30965643     0.16600
C1378       C  0.83507876  0.88909375  0.31163012    -0.32400
C1379       C  0.84196377  0.87114036  0.30537879     0.21000
C1380       C  0.82960238  0.85730355  0.29816835     0.03200
C1381       C  0.81001216  0.86100064  0.29611622    -0.22200
C1382       C  0.80329003  0.87907190  0.30168426     0.12400
S1383       S  0.80383721  0.91365789  0.31588252    -0.05800
C1384       C  0.78295088  0.90399409  0.30673413    -0.09300
C1385       C  0.78486910  0.88547121  0.29983941    -0.25900
S1386       S  0.84039734  0.83639974  0.29153978    -0.03100
C1387       C  0.86201451  0.84645291  0.29787628    -0.16500
C1388       C  0.86074112  0.86503728  0.30503879    -0.14500
H1389       H  0.84467988  0.89984186  0.31743423     0.20800
H1390       H  0.80045000  0.85034952  0.29006221     0.16900
H1391       H  0.77325195  0.87700657  0.29391915     0.19400
H1392       H  0.87286708  0.87359242  0.30964034     0.12700
C1393       C  0.71698981  0.84405340  0.34686344     0.16600
C1394       C  0.71664170  0.82421096  0.34992725    -0.32400
C1395       C  0.71532841  0.81777920  0.36892722     0.21000
C1396       C  0.71415586  0.83047776  0.38421218     0.03200
C1397       C  0.71488802  0.85030697  0.38115919    -0.22200
C1398       C  0.71638046  0.85674308  0.36217837     0.12400
S1399       S  0.71854970  0.85478542  0.32492099    -0.05800
C1400       C  0.71884983  0.87657041  0.33656832    -0.09300
C1401       C  0.71753382  0.87543373  0.35635499    -0.25900
S1402       S  0.71133723  0.81978710  0.40608955    -0.03100
C1403       C  0.71211299  0.79807156  0.39448095    -0.16500
C1404       C  0.71450780  0.79910187  0.37480849    -0.14500
H1405       H  0.71728650  0.81423132  0.33803606     0.20800
H1406       H  0.71418510  0.86028829  0.39304210     0.16900
H1407       H  0.71770658  0.88762760  0.36598471     0.19400
H1408       H  0.71497176  0.78682090  0.36529135     0.12700
C1409       C  0.80362181  0.70820116  0.12968338     0.16600
C1410       C  0.80078455  0.68828591  0.13164201    -0.32400
C1411       C  0.79639933  0.68112785  0.15003753     0.21000
C1412       C  0.79530896  0.69322480  0.16578687     0.03200
C1413       C  0.79789266  0.71305636  0.16379687    -0.22200
C1414       C  0.80185444  0.72021735  0.14542345     0.12400
S1415       S  0.80865988  0.72003631  0.10863198    -0.05800
C1416       C  0.80765301  0.74132515  0.12118533    -0.09300
C1417       C  0.80398470  0.73914863  0.14060621    -0.25900
S1418       S  0.79050370  0.68189829  0.18696041    -0.03100
C1419       C  0.78946397  0.66055814  0.17455317    -0.16500
C1420       C  0.79281575  0.66231360  0.15495802    -0.14500
H1421       H  0.80178264  0.67882754  0.11936971     0.20800
H1422       H  0.79669972  0.72253717  0.17603956     0.16900
H1423       H  0.80266645  0.75092468  0.15065855     0.19400
H1424       H  0.79288505  0.65045230  0.14493099     0.12700
C1425       C  0.84746045  0.80744758  0.18446227     0.16600
C1426       C  0.84949205  0.80733659  0.20439674    -0.32400
C1427       C  0.86780978  0.81052708  0.21192367     0.21000
C1428       C  0.88348660  0.81414091  0.20022544     0.03200
C1429       C  0.88150284  0.81398411  0.18014560    -0.22200
C1430       C  0.86313530  0.81036846  0.17255911     0.12400
S1431       S  0.82634483  0.80363642  0.17278754    -0.05800
C1432       C  0.83867701  0.80540066  0.15150145    -0.09300
C1433       C  0.85818499  0.80903689  0.15350642    -0.25900
S1434       S  0.90437077  0.81835354  0.21257833    -0.03100
C1435       C  0.89176919  0.81457959  0.23350983    -0.16500
C1436       C  0.87253047  0.81051303  0.23092683    -0.14500
H1437       H  0.83730156  0.80472776  0.21367313     0.20800
H1438       H  0.89371827  0.81645290  0.17086884     0.16900
H1439       H  0.86817154  0.81052438  0.14169911     0.19400
H1440       H  0.86244605  0.80787956  0.24245896     0.12700
C1441       C  0.77061577  0.51169529  0.27471657     0.16600
C1442       C  0.77035887  0.53167906  0.27253011    -0.32400
C1443       C  0.77046149  0.53905292  0.25382936     0.21000
C1444       C  0.77050371  0.52705627  0.23796530     0.03200
C1445       C  0.77092400  0.50701385  0.24015370    -0.22200
C1446       C  0.77112176  0.49962881  0.25890750     0.12400
S1447       S  0.77090145  0.50012332  0.29623986    -0.05800
C1448       C  0.77213664  0.47871311  0.28394854    -0.09300
C1449       C  0.77210801  0.48061069  0.26411712    -0.25900
S1450       S  0.77058143  0.53892566  0.21650370    -0.03100
C1451       C  0.77094991  0.56026787  0.22904573    -0.16500
C1452       C  0.77085991  0.55809470  0.24882051    -0.14500
H1453       H  0.77029026  0.54108337  0.28489347     0.20800
H1454       H  0.77128738  0.49761265  0.22779560     0.16900
H1455       H  0.77296026  0.46877411  0.25409447     0.19400
H1456       H  0.77129742  0.56982303  0.25900034     0.12700
C1457       C  0.80312932  0.33385930  0.38719557     0.16600
C1458       C  0.80541372  0.35340395  0.38292031    -0.32400
C1459       C  0.79567696  0.36066216  0.36685290     0.21000
C1460       C  0.78420477  0.34896975  0.35553509     0.03200
C1461       C  0.78146556  0.32959732  0.36014777    -0.22200
C1462       C  0.79119640  0.32235826  0.37618473     0.12400
S1463       S  0.81490838  0.32187581  0.40507287    -0.05800
C1464       C  0.80344230  0.30122825  0.39774429    -0.09300
C1465       C  0.79109645  0.30370655  0.38234788    -0.25900
S1466       S  0.77476591  0.36008526  0.33586285    -0.03100
C1467       C  0.78614019  0.38077124  0.34310267    -0.16500
C1468       C  0.79654768  0.37909097  0.35995455    -0.14500
H1469       H  0.81474601  0.36243977  0.39144679     0.20800
H1470       H  0.77252859  0.32043940  0.35132824     0.16900
H1471       H  0.78307169  0.29228374  0.37550786     0.19400
H1472       H  0.80469581  0.39059924  0.36649115     0.12700
C1473       C  0.88872646  0.22647768  0.32208490     0.16600
C1474       C  0.88615430  0.22785781  0.34201797    -0.32400
C1475       C  0.86758857  0.23181929  0.34881499     0.21000
C1476       C  0.85221003  0.23382632  0.33635968     0.03200
C1477       C  0.85480819  0.23265860  0.31649329    -0.22200
C1478       C  0.87339413  0.22919742  0.30971333     0.12400
S1479       S  0.91006268  0.22186472  0.31075296    -0.05800
C1480       C  0.89817210  0.22432999  0.28925723    -0.09300
C1481       C  0.87878491  0.22819794  0.29090243    -0.25900
S1482       S  0.83077949  0.23818562  0.34733202    -0.03100
C1483       C  0.84268511  0.23791695  0.36896218    -0.16500
C1484       C  0.86222075  0.23434877  0.36759560    -0.14500
H1485       H  0.89810359  0.22611045  0.35177506     0.20800
H1486       H  0.84288849  0.23456926  0.30672433     0.16900
H1487       H  0.86911013  0.23003636  0.27888297     0.19400
H1488       H  0.87193816  0.23362542  0.37968823     0.12700
C1489       C  0.74362016  0.04025254  0.26737846     0.16600
C1490       C  0.74253222  0.02703280  0.28249030    -0.32400
C1491       C  0.74289064  0.00744813  0.27785697     0.21000
C1492       C  0.74440136  0.00122608  0.25903142     0.03200
C1493       C  0.74591259  0.01446250  0.24393024    -0.22200
C1494       C  0.74538803  0.03407861  0.24855846     0.12400
S1495       S  0.74183003  0.06458201  0.26989651    -0.05800
C1496       C  0.74342472  0.06653344  0.24530776    -0.09300
C1497       C  0.74549285  0.04911154  0.23584696    -0.25900
S1498       S  0.74322600  0.97683340  0.25639708    -0.03100
C1499       C  0.74080040  0.97503165  0.28094531    -0.16500
C1500       C  0.74101861  0.99249986  0.29048009    -0.14500
H1501       H  0.74092505  0.03180011  0.29718473     0.20800
H1502       H  0.74688979  0.00969079  0.22918202     0.16900
H1503       H  0.74626216  0.04747181  0.22041933     0.19400
H1504       H  0.73922693  0.99421768  0.30581501     0.12700
C1505       C  0.83588604  0.18207761  0.22725250     0.16600
C1506       C  0.81633211  0.17870707  0.22990517    -0.32400
C1507       C  0.80947559  0.16025217  0.22599944     0.21000
C1508       C  0.82134888  0.14579318  0.21926952     0.03200
C1509       C  0.84105794  0.14906391  0.21695499    -0.22200
C1510       C  0.84801516  0.16748338  0.22129179     0.12400
S1511       S  0.84695118  0.20346387  0.23160392    -0.05800
C1512       C  0.86827211  0.19246645  0.22605773    -0.09300
C1513       C  0.86673096  0.17335720  0.22073625    -0.25900
S1514       S  0.80967983  0.12476166  0.21413313    -0.03100
C1515       C  0.78885355  0.13556875  0.22179047    -0.16500
C1516       C  0.79094106  0.15436076  0.22777333    -0.14500
H1517       H  0.80686935  0.18996309  0.23488904     0.20800
H1518       H  0.85053094  0.13778988  0.21204546     0.16900
H1519       H  0.87870920  0.16419098  0.21705919     0.19400
H1520       H  0.77929707  0.16347960  0.23252157     0.12700
C1521       C  0.69246196  0.40285077  0.30387711     0.16600
C1522       C  0.67287444  0.40049124  0.29975199    -0.32400
C1523       C  0.66523847  0.38183516  0.30089149     0.21000
C1524       C  0.67654962  0.36634535  0.30615922     0.03200
C1525       C  0.69601964  0.36868910  0.31025393    -0.22200
C1526       C  0.70367232  0.38718563  0.30883980     0.12400
S1527       S  0.70485732  0.42409385  0.30279395    -0.05800
C1528       C  0.72518717  0.41147075  0.30882845    -0.09300
C1529       C  0.72243491  0.39204274  0.31156544    -0.25900
S1530       S  0.66492864  0.34486192  0.30647477    -0.03100
C1531       C  0.64454966  0.35666564  0.29911855    -0.16500
C1532       C  0.64675451  0.37634443  0.29680731    -0.14500
H1533       H  0.66406655  0.41257356  0.29557683     0.20800
H1534       H  0.70490777  0.35654696  0.31409149     0.16900
H1535       H  0.73369805  0.38195970  0.31514534     0.19400
H1536       H  0.63555419  0.38602533  0.29213597     0.12700
C1537       C  0.72467791  0.19855949  0.17845896     0.16600
C1538       C  0.72469993  0.21843114  0.17538599    -0.32400
C1539       C  0.72176260  0.22500386  0.15659615     0.21000
C1540       C  0.71854818  0.21241736  0.14152786     0.03200
C1541       C  0.71887463  0.19249552  0.14455326    -0.22200
C1542       C  0.72214461  0.18589305  0.16332764     0.12400
S1543       S  0.72791645  0.18776995  0.20022135    -0.05800
C1544       C  0.72638452  0.16589758  0.18880766    -0.09300
C1545       C  0.72328106  0.16709840  0.16916358    -0.25900
S1546       S  0.71404702  0.22345085  0.12001351    -0.03100
C1547       C  0.71710855  0.24515527  0.13140486    -0.16500
C1548       C  0.72125318  0.24377024  0.15080202    -0.14500
H1549       H  0.72688967  0.22835184  0.18714387     0.20800
H1550       H  0.71661079  0.18257956  0.13281051     0.16900
H1551       H  0.72196773  0.15487344  0.15966431     0.19400
H1552       H  0.72319860  0.25593162  0.16028837     0.12700
C1553       C  0.66571845  0.30492920  0.18999042     0.16600
C1554       C  0.66087156  0.30239183  0.20930218    -0.32400
C1555       C  0.64345715  0.31013664  0.21563618     0.21000
C1556       C  0.63146249  0.32027086  0.20344331     0.03200
C1557       C  0.63612685  0.32247009  0.18397845    -0.22200
C1558       C  0.65344371  0.31442411  0.17753922     0.12400
S1559       S  0.68643154  0.29695074  0.17967705    -0.05800
C1560       C  0.67827217  0.30601250  0.15823331    -0.09300
C1561       C  0.66047210  0.31481629  0.15915255    -0.25900
S1562       S  0.61153612  0.32954428  0.21441607    -0.03100
C1563       C  0.61925853  0.31911638  0.23544918    -0.16500
C1564       C  0.63642150  0.30923421  0.23390038    -0.14500
H1565       H  0.67031803  0.29478892  0.21900821     0.20800
H1566       H  0.62674309  0.33019020  0.17431208     0.16900
H1567       H  0.65318441  0.32127652  0.14705425     0.19400
H1568       H  0.64368738  0.30221442  0.24570534     0.12700
C1569       C  0.01997095  0.28551282  0.25440871     0.16600
C1570       C  0.00000693  0.28379660  0.25561000    -0.32400
C1571       C  0.99187769  0.26598210  0.25114057     0.21000
C1572       C  0.00318014  0.25034588  0.24630172     0.03200
C1573       C  0.02320992  0.25203431  0.24515551    -0.22200
C1574       C  0.03130480  0.27006025  0.24908857     0.12400
S1575       S  0.03221509  0.30639604  0.25767674    -0.05800
C1576       C  0.05283410  0.29446072  0.25122687    -0.09300
C1577       C  0.05027759  0.27508922  0.24731722    -0.25900
S1578       S  0.99048243  0.23001433  0.24130597    -0.03100
C1579       C  0.96975405  0.24289597  0.24526944    -0.16500
C1580       C  0.97266306  0.26185331  0.25038898    -0.14500
H1581       H  0.99114374  0.29600159  0.25929159     0.20800
H1582       H  0.03202459  0.23998925  0.24087683     0.16900
H1583       H  0.06149164  0.26545624  0.24257507     0.19400
H1584       H  0.96134130  0.27206240  0.25332506     0.12700
C1585       C  0.13050316  0.31785985  0.32686781     0.16600
C1586       C  0.13287709  0.31725397  0.34688702    -0.32400
C1587       C  0.15069616  0.31098297  0.35397783     0.21000
C1588       C  0.16550104  0.30595611  0.34166939     0.03200
C1589       C  0.16303255  0.30627612  0.32183250    -0.22200
C1590       C  0.14523512  0.31213775  0.31480537     0.12400
S1591       S  0.11016882  0.32501302  0.31500747    -0.05800
C1592       C  0.12165393  0.31950776  0.29381654    -0.09300
C1593       C  0.14018866  0.31288183  0.29595531    -0.25900
S1594       S  0.18624753  0.29948765  0.35267902    -0.03100
C1595       C  0.17488703  0.30310847  0.37421810    -0.16500
C1596       C  0.15595792  0.30909006  0.37286751    -0.14500
H1597       H  0.12138996  0.32140943  0.35646573     0.20800
H1598       H  0.17450874  0.30206872  0.31225377     0.16900
H1599       H  0.14954621  0.30885109  0.28422539     0.19400
H1600       H  0.14673352  0.31214105  0.38498024     0.12700
C1601       C  0.52254821  0.27396065  0.27841434     0.16600
C1602       C  0.51005287  0.25822024  0.27935163    -0.32400
C1603       C  0.49034003  0.26177903  0.27753310     0.21000
C1604       C  0.48331084  0.28019668  0.27493877     0.03200
C1605       C  0.49585831  0.29593017  0.27365795    -0.22200
C1606       C  0.51561441  0.29236665  0.27547911     0.12400
S1607       S  0.54682097  0.27271061  0.28138521    -0.05800
C1608       C  0.54778500  0.29725164  0.27847354    -0.09300
C1609       C  0.53006159  0.30579972  0.27536310    -0.25900
S1610       S  0.45879283  0.28154501  0.27441183    -0.03100
C1611       C  0.45805074  0.25701115  0.27752698    -0.16500
C1612       C  0.47594948  0.24841943  0.27877727    -0.14500
H1613       H  0.51543881  0.24385502  0.28177673     0.20800
H1614       H  0.49043996  0.31035590  0.27173299     0.16900
H1615       H  0.52780091  0.32107893  0.27369482     0.19400
H1616       H  0.47829835  0.23325046  0.28119469     0.12700
C1617       C  0.31816605  0.14671616  0.30636408     0.16600
C1618       C  0.33788560  0.15075884  0.30625113    -0.32400
C1619       C  0.34357550  0.16942989  0.30116044     0.21000
C1620       C  0.33024216  0.18346447  0.29659143     0.03200
C1621       C  0.31064379  0.17928629  0.29618684    -0.22200
C1622       C  0.30499867  0.16063903  0.30105764     0.12400
S1623       S  0.30802712  0.12534524  0.31312710    -0.05800
C1624       C  0.28599233  0.13527925  0.30814253    -0.09300
C1625       C  0.28659209  0.15405577  0.30175813    -0.25900
S1626       S  0.33982577  0.20547237  0.29182924    -0.03100
C1627       C  0.36211183  0.19562415  0.29558092    -0.16500
C1628       C  0.36199137  0.17628700  0.30030474    -0.14500
H1629       H  0.34829611  0.13993814  0.31018578     0.20800
H1630       H  0.30021449  0.19016546  0.29245069     0.16900
H1631       H  0.27409674  0.16262626  0.29833867     0.19400
H1632       H  0.37467358  0.16779693  0.30314670     0.12700
C1633       C  0.20908438  0.20733277  0.39015072     0.16600
C1634       C  0.20777484  0.18757543  0.38646197    -0.32400
C1635       C  0.21445150  0.18097229  0.36862463     0.21000
C1636       C  0.22163548  0.19350893  0.35492699     0.03200
C1637       C  0.22321554  0.21311906  0.35872706    -0.22200
C1638       C  0.21700812  0.21962109  0.37665862     0.12400
S1639       S  0.20155305  0.21854032  0.41069287    -0.05800
C1640       C  0.20986320  0.23976354  0.40109201    -0.09300
C1641       C  0.21770723  0.23812244  0.38294897    -0.25900
S1642       S  0.22861377  0.18290353  0.33403777    -0.03100
C1643       C  0.22243445  0.16124055  0.34405742    -0.16500
C1644       C  0.21510487  0.16229605  0.36251070    -0.14500
H1645       H  0.20193048  0.17779711  0.39702380     0.20800
H1646       H  0.22915079  0.22288707  0.34820129     0.16900
H1647       H  0.22324652  0.24999854  0.37458496     0.19400
H1648       H  0.21063042  0.15005997  0.37098058     0.12700
C1649       C  0.19713657  0.39924276  0.21959603     0.16600
C1650       C  0.17715681  0.39645604  0.21851898    -0.32400
C1651       C  0.16986888  0.37843571  0.22413219     0.21000
C1652       C  0.18200981  0.36385965  0.23011835     0.03200
C1653       C  0.20175885  0.36676810  0.23154495    -0.22200
C1654       C  0.20894043  0.38475027  0.22635852     0.12400
S1655       S  0.20927967  0.41969083  0.21309226    -0.05800
C1656       C  0.23019115  0.40859258  0.22029018    -0.09300
C1657       C  0.22774478  0.39009951  0.22701973    -0.25900
S1658       S  0.17089189  0.34283535  0.23559995    -0.03100
C1659       C  0.14943258  0.35372397  0.23034954    -0.16500
C1660       C  0.15094849  0.37275159  0.22451831    -0.14500
H1661       H  0.16775939  0.40776077  0.21353610     0.20800
H1662       H  0.21116497  0.35545194  0.23650567     0.16900
H1663       H  0.23927249  0.38085394  0.23180705     0.19400
H1664       H  0.13894030  0.38180982  0.22068748     0.12700
C1665       C  0.30719436  0.33486615  0.13938821     0.16600
C1666       C  0.31162142  0.35367149  0.14515683    -0.32400
C1667       C  0.30224921  0.36085149  0.16150959     0.21000
C1668       C  0.28944864  0.34964043  0.17185875     0.03200
C1669       C  0.28484264  0.33107076  0.16594267    -0.22200
C1670       C  0.29382896  0.32409960  0.14944045     0.12400
S1671       S  0.31715428  0.32304994  0.12026799    -0.05800
C1672       C  0.30261545  0.30376587  0.12567426    -0.09300
C1673       C  0.29100873  0.30643305  0.14155202    -0.25900
S1674       S  0.27994123  0.36049314  0.19154876    -0.03100
C1675       C  0.29287650  0.38057567  0.18556862    -0.16500
C1676       C  0.30405877  0.37888732  0.16921249    -0.14500
H1677       H  0.32184255  0.36230547  0.13726304     0.20800
H1678       H  0.27463085  0.32242581  0.17384623     0.16900
H1679       H  0.28136187  0.29573343  0.14739770     0.19400
H1680       H  0.31296351  0.39019518  0.16335091     0.12700
C1681       C  0.34222529  0.24221351  0.18598879     0.16600
C1682       C  0.34614347  0.24565322  0.20541292    -0.32400
C1683       C  0.36383119  0.23933689  0.21264347     0.21000
C1684       C  0.37688854  0.22966644  0.20119724     0.03200
C1685       C  0.37311241  0.22654427  0.18168032    -0.22200
C1686       C  0.35558957  0.23320144  0.17434369     0.12400
S1687       S  0.32167407  0.24886664  0.17442815    -0.05800
C1688       C  0.33145270  0.23996843  0.15356745    -0.09300
C1689       C  0.34957340  0.23209431  0.15564097    -0.25900
S1690       S  0.39701822  0.22213560  0.21305435    -0.03100
C1691       C  0.38800653  0.23265559  0.23350478    -0.16500
C1692       C  0.37024949  0.24132102  0.23111139    -0.14500
H1693       H  0.33588104  0.25296436  0.21448043     0.20800
H1694       H  0.38338349  0.21925835  0.17260747     0.16900
H1695       H  0.35797170  0.22611518  0.14403078     0.19400
H1696       H  0.36216890  0.24816775  0.24246945     0.12700
C1697       C  0.23668560  0.26330214  0.00292309     0.16600
C1698       C  0.23817400  0.26249161  0.02292781    -0.32400
C1699       C  0.25650145  0.26401512  0.03098428     0.21000
C1700       C  0.27263745  0.26669201  0.01967149     0.03200
C1701       C  0.27113999  0.26760072  0.99959988    -0.22200
C1702       C  0.25280955  0.26557657  0.99149297     0.12400
S1703       S  0.21583035  0.26053480  0.99053647    -0.05800
C1704       C  0.22891102  0.26197133  0.96963106    -0.09300
C1705       C  0.24844449  0.26472710  0.97227958    -0.25900
S1706       S  0.29364813  0.26731160  0.03227197    -0.03100
C1707       C  0.28055833  0.26341032  0.05291533    -0.16500
C1708       C  0.26093577  0.26217582  0.05003941    -0.14500
H1709       H  0.22563574  0.26019865  0.03180380     0.20800
H1710       H  0.28375516  0.26921294  0.99068894     0.16900
H1711       H  0.25889377  0.26559201  0.96082422     0.19400
H1712       H  0.25051231  0.25935793  0.06120688     0.12700
C1713       C  0.22038145  0.34758899  0.85070254     0.16600
C1714       C  0.21931970  0.32779077  0.85381623    -0.32400
C1715       C  0.21361306  0.32149563  0.87202533     0.21000
C1716       C  0.20880188  0.33424691  0.88650722     0.03200
C1717       C  0.21017945  0.35412868  0.88347737    -0.22200
C1718       C  0.21623201  0.36045779  0.86529681     0.12400
S1719       S  0.22681126  0.35800280  0.82949954    -0.05800
C1720       C  0.22435974  0.37998486  0.84046467    -0.09300
C1721       C  0.21874789  0.37913392  0.85954967    -0.25900
S1722       S  0.20186074  0.32341700  0.90750861    -0.03100
C1723       C  0.20612785  0.30162034  0.89669914    -0.16500
C1724       C  0.21228156  0.30283908  0.87785356    -0.14500
H1725       H  0.22286849  0.31770660  0.84254294     0.20800
H1726       H  0.20677342  0.36420657  0.89479165     0.16900
H1727       H  0.21644778  0.39151649  0.86864189     0.19400
H1728       H  0.21574603  0.29061198  0.86890474     0.12700
C1729       C  0.33471820  0.35943873  0.79933589     0.16600
C1730       C  0.31500075  0.36302532  0.79851598    -0.32400
C1731       C  0.30872391  0.38161467  0.80285617     0.21000
C1732       C  0.32136828  0.39595612  0.80836847     0.03200
C1733       C  0.34119268  0.39243067  0.80893617    -0.22200
C1734       C  0.34754401  0.37391761  0.80404129     0.12400
S1735       S  0.34513163  0.33791110  0.79410364    -0.05800
C1736       C  0.36708378  0.34863932  0.79759780    -0.09300
C1737       C  0.36621899  0.36783039  0.80285350    -0.25900
S1738       S  0.31050924  0.41735987  0.81381307    -0.03100
C1739       C  0.28890662  0.40695025  0.80778970    -0.16500
C1740       C  0.29018519  0.38791062  0.80226680    -0.14500
H1741       H  0.30498752  0.35186187  0.79443125     0.20800
H1742       H  0.35122211  0.40364833  0.81281147     0.16900
H1743       H  0.37859385  0.37686591  0.80544237     0.19400
H1744       H  0.27805458  0.37902772  0.79831131     0.12700
C1745       C  0.24869554  0.28627692  0.53546764     0.16600
C1746       C  0.23355929  0.28888984  0.52262641    -0.32400
C1747       C  0.23694285  0.28466400  0.50331849     0.21000
C1748       C  0.25459688  0.27809388  0.49694145     0.03200
C1749       C  0.26968393  0.27510082  0.50988606    -0.22200
C1750       C  0.26630911  0.27945102  0.52925076     0.12400
S1751       S  0.24775441  0.29194463  0.55921227    -0.05800
C1752       C  0.27141680  0.28523554  0.56082847    -0.09300
C1753       C  0.27940473  0.27865054  0.54383893    -0.25900
S1754       S  0.25603507  0.27519772  0.47262274    -0.03100
C1755       C  0.23252907  0.28265155  0.47127866    -0.16500
C1756       C  0.22418694  0.28706836  0.48869670    -0.14500
H1757       H  0.21986755  0.29443997  0.52740007     0.20800
H1758       H  0.28356587  0.27013711  0.50502001     0.16900
H1759       H  0.29418019  0.27420424  0.54210430     0.19400
H1760       H  0.20973400  0.29246664  0.49047285     0.12700
C1761       C  0.34640995  0.29805537  0.68739945     0.16600
C1762       C  0.35219559  0.29409786  0.70617942    -0.32400
C1763       C  0.36872233  0.30329293  0.71292334     0.21000
C1764       C  0.37896848  0.31607357  0.70161630     0.03200
C1765       C  0.37341560  0.31972067  0.68264706    -0.22200
C1766       C  0.35699185  0.31032079  0.67580127     0.12400
S1767       S  0.32644425  0.28872985  0.67680276    -0.05800
C1768       C  0.33268987  0.30111506  0.65643779    -0.09300
C1769       C  0.34929538  0.31189010  0.65780679    -0.25900
S1770       S  0.39788563  0.32669873  0.71304534    -0.03100
C1771       C  0.39213520  0.31338512  0.73305604    -0.16500
C1772       C  0.37634513  0.30152315  0.73086784    -0.14500
H1773       H  0.34406528  0.28440106  0.71521324     0.20800
H1774       H  0.38142580  0.32957742  0.67368349     0.16900
H1775       H  0.35526937  0.32048982  0.64631879     0.19400
H1776       H  0.37034640  0.29255117  0.74205842     0.12700
C1777       C  0.16497695  0.23181474  0.83925353     0.16600
C1778       C  0.16158280  0.23257978  0.81953710    -0.32400
C1779       C  0.14316082  0.22798574  0.81308400     0.21000
C1780       C  0.12878116  0.22218353  0.82554340     0.03200
C1781       C  0.13212968  0.22157924  0.84541382    -0.22200
C1782       C  0.15048986  0.22683424  0.85195866     0.12400
S1783       S  0.18622284  0.23775603  0.84975232    -0.05800
C1784       C  0.17539008  0.23431680  0.87160682    -0.09300
C1785       C  0.15637892  0.22840524  0.87068179    -0.25900
S1786       S  0.10755849  0.21661784  0.81438737    -0.03100
C1787       C  0.11813981  0.22302523  0.79297610    -0.16500
C1788       C  0.13707898  0.22870938  0.79451353    -0.14500
H1789       H  0.17274812  0.23695114  0.80965031     0.20800
H1790       H  0.12086955  0.21753909  0.85532553     0.16900
H1791       H  0.14729883  0.22579818  0.88301548     0.19400
H1792       H  0.14605230  0.23291426  0.78253574     0.12700
C1793       C  0.17670423  0.17784332  0.72100741     0.16600
C1794       C  0.19603443  0.17496260  0.71629014    -0.32400
C1795       C  0.20389631  0.15673051  0.71956794     0.21000
C1796       C  0.19295735  0.14181067  0.72690676     0.03200
C1797       C  0.17350557  0.14466782  0.73150790    -0.22200
C1798       C  0.16568904  0.16306755  0.72850846     0.12400
S1799       S  0.16492428  0.19924110  0.71902751    -0.05800
C1800       C  0.14485980  0.18839711  0.72861050    -0.09300
C1801       C  0.14734155  0.16902529  0.73282782    -0.25900
S1802       S  0.20555398  0.12088811  0.73024209    -0.03100
C1803       C  0.22568789  0.13255681  0.72188084    -0.16500
C1804       C  0.22263756  0.15150749  0.71672896    -0.14500
H1805       H  0.20470996  0.18658031  0.71067829     0.20800
H1806       H  0.16494692  0.13317050  0.73751477     0.16900
H1807       H  0.13645348  0.15990355  0.73912731     0.19400
H1808       H  0.23370811  0.16106998  0.71144858     0.12700
C1809       C  0.28999109  0.20912825  0.63985733     0.16600
C1810       C  0.28980962  0.18925210  0.64290160    -0.32400
C1811       C  0.28779164  0.18278429  0.66185437     0.21000
C1812       C  0.28610095  0.19551582  0.67706155     0.03200
C1813       C  0.28575460  0.21529361  0.67397024    -0.22200
C1814       C  0.28765353  0.22173281  0.65508284     0.12400
S1815       S  0.29382939  0.22008827  0.61823673    -0.05800
C1816       C  0.29178620  0.24170830  0.62995122    -0.09300
C1817       C  0.28831503  0.24042152  0.64940882    -0.25900
S1818       S  0.28467762  0.18501222  0.69904200    -0.03100
C1819       C  0.28596966  0.16317557  0.68765937    -0.16500
C1820       C  0.28752780  0.16409438  0.66786486    -0.14500
H1821       H  0.29152586  0.17929720  0.63110041     0.20800
H1822       H  0.28437199  0.22525652  0.68581676     0.16900
H1823       H  0.28720269  0.25258372  0.65903083     0.19400
H1824       H  0.28848180  0.15178370  0.65843388     0.12700
C1825       C  0.75279576  0.28729786  0.99529753     0.16600
C1826       C  0.73730754  0.28682783  0.00819550    -0.32400
C1827       C  0.74143952  0.28760913  0.02793178     0.21000
C1828       C  0.76015050  0.28880068  0.03453538     0.03200
C1829       C  0.77563579  0.28885987  0.02165738    -0.22200
C1830       C  0.77151575  0.28808107  0.00193876     0.12400
S1831       S  0.75084023  0.28779283  0.97080481    -0.05800
C1832       C  0.77553180  0.28883455  0.96946356    -0.09300
C1833       C  0.78460306  0.28872627  0.98720761    -0.25900
S1834       S  0.76209809  0.29084926  0.05893395    -0.03100
C1835       C  0.73743210  0.28986024  0.06036926    -0.16500
C1836       C  0.72836047  0.28801651  0.04269088    -0.14500
H1837       H  0.72266109  0.28628956  0.00306450     0.20800
H1838       H  0.79026128  0.28987306  0.02677467     0.16900
H1839       H  0.79996593  0.28973696  0.98924103     0.19400
H1840       H  0.71296594  0.28756910  0.04069431     0.12700
C1841       C  0.98274445  0.26475989  0.74764325     0.16600
C1842       C  0.99545980  0.24915285  0.74871343    -0.32400
C1843       C  0.01525087  0.25308401  0.74929827     0.21000
C1844       C  0.02210798  0.27174964  0.74895383     0.03200
C1845       C  0.00937647  0.28738580  0.74828645    -0.22200
C1846       C  0.98958088  0.28343439  0.74757083     0.12400
S1847       S  0.95829460  0.26298174  0.74554488    -0.05800
C1848       C  0.95715825  0.28768119  0.74462008    -0.09300
C1849       C  0.97498146  0.29662286  0.74603438    -0.25900
S1850       S  0.04664621  0.27338330  0.74840488    -0.03100
C1851       C  0.04776049  0.24862788  0.74872526    -0.16500
C1852       C  0.02985969  0.23980541  0.74936763    -0.14500
H1853       H  0.99016924  0.23454254  0.74861609     0.20800
H1854       H  0.01468392  0.30198641  0.74785420     0.16900
H1855       H  0.97719737  0.31199542  0.74546346     0.19400
H1856       H  0.02761610  0.22443084  0.74913102     0.12700
C1857       C  0.87959439  0.31165705  0.82313746     0.16600
C1858       C  0.87701468  0.31181424  0.84312809    -0.32400
C1859       C  0.85844025  0.30833046  0.85020368     0.21000
C1860       C  0.84311680  0.30517738  0.83790549     0.03200
C1861       C  0.84576080  0.30462418  0.81804094    -0.22200
C1862       C  0.86430465  0.30775453  0.81102822     0.12400
S1863       S  0.90075807  0.31616501  0.81140501    -0.05800
C1864       C  0.88883482  0.31212318  0.79014914    -0.09300
C1865       C  0.86958621  0.30772053  0.79217998    -0.25900
S1866       S  0.82161100  0.30195200  0.84905508    -0.03100
C1867       C  0.83335614  0.30428602  0.87062824    -0.16500
C1868       C  0.85293732  0.30759352  0.86911418    -0.14500
H1869       H  0.88891231  0.31458099  0.85272000     0.20800
H1870       H  0.83385029  0.30190305  0.80844144     0.16900
H1871       H  0.85984040  0.30506328  0.78036493     0.19400
H1872       H  0.86256218  0.30942095  0.88116806     0.12700
C1873       C  0.79664094  0.21145287  0.88794002     0.16600
C1874       C  0.79846731  0.19175388  0.88439194    -0.32400
C1875       C  0.79223035  0.18487093  0.86654635     0.21000
C1876       C  0.78490556  0.19710746  0.85265990     0.03200
C1877       C  0.78274265  0.21672796  0.85633656    -0.22200
C1878       C  0.78857953  0.22352292  0.87433347     0.12400
S1879       S  0.80402715  0.22280527  0.90838921    -0.05800
C1880       C  0.79551277  0.24386537  0.89874691    -0.09300
C1881       C  0.78765770  0.24209066  0.88057266    -0.25900
S1882       S  0.77902901  0.18612270  0.83159028    -0.03100
C1883       C  0.78596115  0.16476550  0.84182046    -0.16500
C1884       C  0.79258933  0.16618729  0.86048262    -0.14500
H1885       H  0.80455147  0.18221848  0.89504307     0.20800
H1886       H  0.77681793  0.22629556  0.84561699     0.16900
H1887       H  0.78217531  0.25391475  0.87210107     0.19400
H1888       H  0.79762975  0.15422710  0.86902571     0.12700
C1889       C  0.74222071  0.26080332  0.51683871     0.16600
C1890       C  0.74452895  0.25899902  0.49695850    -0.32400
C1891       C  0.76323102  0.25939615  0.48964042     0.21000
C1892       C  0.77897092  0.26190870  0.50153237     0.03200
C1893       C  0.77666964  0.26361017  0.52149762    -0.22200
C1894       C  0.75792733  0.26276164  0.52888804     0.12400
S1895       S  0.72072355  0.25976206  0.52838967    -0.05800
C1896       C  0.73290760  0.26130020  0.54984224    -0.09300
C1897       C  0.75267689  0.26294720  0.54793720    -0.25900
S1898       S  0.80045810  0.26197815  0.48970593    -0.03100
C1899       C  0.78808625  0.25820473  0.46859255    -0.16500
C1900       C  0.76836066  0.25712279  0.47078525    -0.14500
H1901       H  0.73227472  0.25700857  0.48762387     0.20800
H1902       H  0.78895577  0.26514920  0.53086995     0.16900
H1903       H  0.76266044  0.26370902  0.55980806     0.19400
H1904       H  0.75829940  0.25464747  0.45921099     0.12700
C1905       C  0.80144725  0.37902173  0.73093242     0.16600
C1906       C  0.81163546  0.36272935  0.73691051    -0.32400
C1907       C  0.83076265  0.36099164  0.73095667     0.21000
C1908       C  0.83949399  0.37521811  0.72009933     0.03200
C1909       C  0.82925695  0.39143384  0.71400801    -0.22200
C1910       C  0.80995263  0.39285681  0.71941420     0.12400
S1911       S  0.77794174  0.38326015  0.73592254    -0.05800
C1912       C  0.77927787  0.40345408  0.72167195    -0.09300
C1913       C  0.79724287  0.40690308  0.71391313    -0.25900
S1914       S  0.86305622  0.37102205  0.71518087    -0.03100
C1915       C  0.86103599  0.34959979  0.72732859    -0.16500
C1916       C  0.84300748  0.34604000  0.73492410    -0.14500
H1917       H  0.80485007  0.35174960  0.74557153     0.20800
H1918       H  0.83598966  0.40233466  0.70521218     0.16900
H1919       H  0.80069173  0.41873947  0.70445484     0.19400
H1920       H  0.83928912  0.33357799  0.74343720     0.12700
C1921       C  0.71704288  0.34864022  0.66950629     0.16600
C1922       C  0.71865075  0.32895068  0.66589967    -0.32400
C1923       C  0.71442694  0.32248102  0.64734387     0.21000
C1924       C  0.70830477  0.33493149  0.63309188     0.03200
C1925       C  0.70699919  0.35472278  0.63661464    -0.22200
C1926       C  0.71176482  0.36127998  0.65507170     0.12400
S1927       S  0.72196548  0.35927327  0.69099392    -0.05800
C1928       C  0.71767069  0.38107034  0.68027010    -0.09300
C1929       C  0.71232238  0.38001456  0.66113028    -0.25900
S1930       S  0.70280732  0.32390543  0.61183670    -0.03100
C1931       C  0.70948153  0.30246272  0.62214721    -0.16500
C1932       C  0.71543174  0.30391344  0.64105230    -0.14500
H1933       H  0.72316730  0.31911094  0.67703969     0.20800
H1934       H  0.70260874  0.36457668  0.62544113     0.16900
H1935       H  0.70928630  0.39229313  0.65210945     0.19400
H1936       H  0.71973263  0.29188743  0.64990345     0.12700
C1937       C  0.51555855  0.25012124  0.77068038     0.16600
C1938       C  0.49553056  0.25134163  0.77228912    -0.32400
C1939       C  0.48716923  0.26961104  0.77108228     0.21000
C1940       C  0.49823663  0.28583745  0.76785590     0.03200
C1941       C  0.51823719  0.28460323  0.76618294    -0.22200
C1942       C  0.52664606  0.26642820  0.76795968     0.12400
S1943       S  0.52849937  0.22948606  0.77290375    -0.05800
C1944       C  0.54911559  0.24301939  0.77074788    -0.09300
C1945       C  0.54594168  0.26246628  0.76806436    -0.25900
S1946       S  0.48556167  0.30673275  0.76744085    -0.03100
C1947       C  0.46513509  0.29362548  0.77222145    -0.16500
C1948       C  0.46811722  0.27398308  0.77363018    -0.14500
H1949       H  0.48691214  0.23868029  0.77492018     0.20800
H1950       H  0.52691030  0.29733787  0.76416143     0.16900
H1951       H  0.55712878  0.27316003  0.76666331     0.19400
H1952       H  0.45707197  0.26355182  0.77689788     0.12700
C1953       C  0.65974027  0.22123614  0.67331392     0.16600
C1954       C  0.65509511  0.21180565  0.69047981    -0.32400
C1955       C  0.63807948  0.21713328  0.69982770     0.21000
C1956       C  0.62613901  0.23118063  0.69237039     0.03200
C1957       C  0.63043974  0.24012495  0.67483016    -0.22200
C1958       C  0.64753844  0.23488084  0.66555241     0.12400
S1959       S  0.68057460  0.21809253  0.66077033    -0.05800
C1960       C  0.67269672  0.23516406  0.64472783    -0.09300
C1961       C  0.65477274  0.24271397  0.64897693    -0.25900
S1962       S  0.60759493  0.23741658  0.70719835    -0.03100
C1963       C  0.61576341  0.22061142  0.72337532    -0.16500
C1964       C  0.63201886  0.21082512  0.71748191    -0.14500
H1965       H  0.66470295  0.20129330  0.69667067     0.20800
H1966       H  0.62126677  0.25124953  0.66906394     0.16900
H1967       H  0.64765545  0.25373313  0.64065971     0.19400
H1968       H  0.63979166  0.20065854  0.72628951     0.12700
C1969       C  0.69562552  0.14463822  0.80201602     0.16600
C1970       C  0.67603341  0.14889993  0.80358208    -0.32400
C1971       C  0.66980736  0.16676417  0.79660034     0.21000
C1972       C  0.68249305  0.17989578  0.78866753     0.03200
C1973       C  0.70190598  0.17543970  0.78667586    -0.22200
C1974       C  0.70806000  0.15754493  0.79337467     0.12400
S1975       S  0.70658622  0.12441243  0.81074189    -0.05800
C1976       C  0.72794612  0.13341965  0.80216016    -0.09300
C1977       C  0.72644896  0.15102194  0.79309652    -0.25900
S1978       S  0.67230287  0.20101058  0.78157748    -0.03100
C1979       C  0.65058407  0.19182267  0.78874397    -0.16500
C1980       C  0.65139116  0.17350012  0.79650359    -0.14500
H1981       H  0.66612704  0.13885709  0.81011357     0.20800
H1982       H  0.71184618  0.18555857  0.78030757     0.16900
H1983       H  0.73844379  0.15912195  0.78740859     0.19400
H1984       H  0.63909697  0.16548432  0.80162754     0.12700
C1985       C  0.24795523  0.01354322  0.24500333     0.16600
C1986       C  0.24657421  0.03350657  0.24686659    -0.32400
C1987       C  0.24753009  0.04122417  0.26539940     0.21000
C1988       C  0.25031631  0.02964871  0.28133942     0.03200
C1989       C  0.25181502  0.00967426  0.27946628    -0.22200
C1990       C  0.25025909  0.00189850  0.26097462     0.12400
S1991       S  0.24578178  0.00137450  0.22390111    -0.05800
C1992       C  0.24739234  0.98032704  0.23676012    -0.09300
C1993       C  0.24986233  0.98277056  0.25633714    -0.25900
S1994       S  0.25037628  0.04173760  0.30262435    -0.03100
C1995       C  0.24606719  0.06253356  0.28994718    -0.16500
C1996       C  0.24506985  0.06011439  0.27024689    -0.14500
H1997       H  0.24423872  0.04257232  0.23446979     0.20800
H1998       H  0.25348052  0.00055564  0.29193150     0.16900
H1999       H  0.25083455  0.97119085  0.26664856     0.19400
H2000       H  0.24216666  0.07147759  0.26005895     0.12700
C2001       C  0.50187058  0.79056675  0.25081037     0.16600
C2002       C  0.52187918  0.78859503  0.24976036    -0.32400
C2003       C  0.52940161  0.76992064  0.25018958     0.21000
C2004       C  0.51752478  0.75405286  0.25210430     0.03200
C2005       C  0.49761481  0.75603410  0.25319037    -0.22200
C2006       C  0.49008562  0.77458198  0.25223109     0.12400
S2007       S  0.48975566  0.81177923  0.24936811    -0.05800
C2008       C  0.46866796  0.79883696  0.25009470    -0.09300
C2009       C  0.47103417  0.77921768  0.25174689    -0.25900
S2010       S  0.52909791  0.73261421  0.25189183    -0.03100
C2011       C  0.55023606  0.74496964  0.24869465    -0.16500
C2012       C  0.54831227  0.76478541  0.24816700    -0.14500
H2013       H  0.53110478  0.80099968  0.24816223     0.20800
H2014       H  0.48835279  0.74359285  0.25419973     0.16900
H2015       H  0.45944451  0.76886707  0.25209901     0.19400
H2016       H  0.55999303  0.77480495  0.24600813     0.12700
C2017       C  0.33603053  0.86193943  0.23014631     0.16600
C2018       C  0.31632492  0.86547954  0.23148443    -0.32400
C2019       C  0.30979427  0.88375252  0.22621489     0.21000
C2020       C  0.32221359  0.89785284  0.21964859     0.03200
C2021       C  0.34200159  0.89447977  0.21883361    -0.22200
C2022       C  0.34856896  0.87625959  0.22430873     0.12400
S2023       S  0.34677936  0.84055263  0.23537019    -0.05800
C2024       C  0.36842569  0.85120583  0.23011580    -0.09300
C2025       C  0.36723335  0.87023822  0.22453164    -0.25900
S2026       S  0.31113600  0.91858048  0.21253607    -0.03100
C2027       C  0.28967831  0.90825444  0.21905809    -0.16500
C2028       C  0.29116325  0.88977434  0.22620942    -0.14500
H2029       H  0.30648681  0.85442544  0.23623766     0.20800
H2030       H  0.35182327  0.90548036  0.21393359     0.16900
H2031       H  0.37940165  0.87917113  0.22083403     0.19400
H2032       H  0.27911383  0.88097471  0.23057391     0.12700
C2033       C  0.34735454  0.80911312  0.33664981     0.16600
C2034       C  0.35156952  0.80789733  0.31711879    -0.32400
C2035       C  0.37031409  0.81215137  0.31140846     0.21000
C2036       C  0.38422758  0.81794302  0.32440620     0.03200
C2037       C  0.38007018  0.81890537  0.34406398    -0.22200
C2038       C  0.36138383  0.81412007  0.34986180     0.12400
S2039       S  0.32552292  0.80406027  0.34635155    -0.05800
C2040       C  0.33553552  0.80798991  0.36852814    -0.09300
C2041       C  0.35467902  0.81333119  0.36830339    -0.25900
S2042       S  0.40583459  0.82356231  0.31414876    -0.03100
C2043       C  0.39602492  0.81734946  0.29235483    -0.16500
C2044       C  0.37709578  0.81149889  0.29309647    -0.14500
H2045       H  0.34073419  0.80364711  0.30681316     0.20800
H2046       H  0.39092447  0.82306647  0.35437851     0.16900
H2047       H  0.36323705  0.81624360  0.38094386     0.19400
H2048       H  0.36854962  0.80755493  0.28071871     0.12700
C2049       C  0.21774439  0.83305481  0.13770576     0.16600
C2050       C  0.22042455  0.85285898  0.14005590    -0.32400
C2051       C  0.22154246  0.85995676  0.15887858     0.21000
C2052       C  0.21966456  0.84798115  0.17465788     0.03200
C2053       C  0.21700733  0.82822877  0.17232555    -0.22200
C2054       C  0.21632622  0.82110189  0.15355430     0.12400
S2055       S  0.21668299  0.82134694  0.11610614    -0.05800
C2056       C  0.21482196  0.80024101  0.12874137    -0.09300
C2057       C  0.21478180  0.80226436  0.14846877    -0.25900
S2058       S  0.22160017  0.85929704  0.19627689    -0.03100
C2059       C  0.22539727  0.88036455  0.18395642    -0.16500
C2060       C  0.22491261  0.87858657  0.16414359    -0.14500
H2061       H  0.22191793  0.86226135  0.12778503     0.20800
H2062       H  0.21588705  0.81877510  0.18460033     0.16900
H2063       H  0.21385807  0.79046982  0.15855199     0.19400
H2064       H  0.22710020  0.89026723  0.15413466     0.12700
C2065       C  0.26841344  0.54143298  0.25927792     0.16600
C2066       C  0.26792864  0.52807467  0.24432418    -0.32400
C2067       C  0.26939364  0.50861940  0.24913896     0.21000
C2068       C  0.27099904  0.50255704  0.26800823     0.03200
C2069       C  0.27093433  0.51592099  0.28306194    -0.22200
C2070       C  0.26973615  0.53546331  0.27820332     0.12400
S2071       S  0.26890442  0.56575342  0.25620354    -0.05800
C2072       C  0.27087215  0.56799221  0.28070440    -0.09300
C2073       C  0.27089775  0.55067338  0.29058687    -0.25900
S2074       S  0.27427695  0.47832010  0.27051296    -0.03100
C2075       C  0.27355310  0.47650735  0.24584865    -0.16500
C2076       C  0.27060586  0.49376454  0.23644879    -0.14500
H2077       H  0.26719848  0.53267933  0.22950646     0.20800
H2078       H  0.27247686  0.51135680  0.29782880     0.16900
H2079       H  0.27263375  0.54926075  0.30595974     0.19400
H2080       H  0.27016304  0.49548882  0.22101490     0.12700
C2081       C  0.30352696  0.71150707  0.38343672     0.16600
C2082       C  0.30269754  0.69163458  0.38031250    -0.32400
C2083       C  0.30251047  0.68515443  0.36123419     0.21000
C2084       C  0.30393883  0.69779908  0.34594143     0.03200
C2085       C  0.30506374  0.71763286  0.34906620    -0.22200
C2086       C  0.30433618  0.72415598  0.36809848     0.12400
S2087       S  0.30270546  0.72241116  0.40545216    -0.05800
C2088       C  0.30262331  0.74416384  0.39377114    -0.09300
C2089       C  0.30366422  0.74290988  0.37395548    -0.25900
S2090       S  0.30222140  0.68721365  0.32389206    -0.03100
C2091       C  0.29866059  0.66562795  0.33538394    -0.16500
C2092       C  0.29961130  0.66664235  0.35525136    -0.14500
H2093       H  0.30145165  0.68171177  0.39219952     0.20800
H2094       H  0.30560428  0.72758974  0.33715384     0.16900
H2095       H  0.30404145  0.75513362  0.36436196     0.19400
H2096       H  0.29736850  0.65462161  0.36484086     0.12700
C2097       C  0.98637760  0.76663514  0.27866907     0.16600
C2098       C  0.99955023  0.75144277  0.27938925    -0.32400
C2099       C  0.01916844  0.75605184  0.27958501     0.21000
C2100       C  0.02543435  0.77492898  0.27911808     0.03200
C2101       C  0.01226888  0.79010357  0.27810917    -0.22200
C2102       C  0.99265670  0.78549707  0.27790328     0.12400
S2103       S  0.96196564  0.76417299  0.27950106    -0.05800
C2104       C  0.96018061  0.78884009  0.27876551    -0.09300
C2105       C  0.97770857  0.79826665  0.27776045    -0.25900
S2106       S  0.04981282  0.77750335  0.28045444    -0.03100
C2107       C  0.05162659  0.75285530  0.28139675    -0.16500
C2108       C  0.03412745  0.74333642  0.28074129    -0.14500
H2109       H  0.99472087  0.73668952  0.28011101     0.20800
H2110       H  0.01708877  0.80487511  0.27784891     0.16900
H2111       H  0.97945943  0.81370791  0.27767944     0.19400
H2112       H  0.03241336  0.72791126  0.28153997     0.12700
C2113       C  0.13539534  0.72734934  0.20510071     0.16600
C2114       C  0.14088491  0.72320678  0.18619651    -0.32400
C2115       C  0.15785496  0.73164360  0.17934408     0.21000
C2116       C  0.16902773  0.74343397  0.19085272     0.03200
C2117       C  0.16332978  0.74789530  0.20956617    -0.22200
C2118       C  0.14625176  0.73969048  0.21629942     0.12400
S2119       S  0.11588595  0.71781426  0.21662321    -0.05800
C2120       C  0.12224259  0.73102060  0.23652942    -0.09300
C2121       C  0.13864133  0.74204703  0.23418369    -0.25900
S2122       S  0.18945443  0.75170647  0.18014397    -0.03100
C2123       C  0.18262100  0.73952723  0.15980907    -0.16500
C2124       C  0.16547464  0.72959480  0.16135420    -0.14500
H2125       H  0.13240941  0.71371848  0.17728267     0.20800
H2126       H  0.17189747  0.75724645  0.21854110     0.16900
H2127       H  0.14514370  0.75074512  0.24529991     0.19400
H2128       H  0.15896417  0.72135222  0.14990509     0.12700
C2129       C  0.18301791  0.68557633  0.30044358     0.16600
C2130       C  0.20286543  0.68281359  0.30091236    -0.32400
C2131       C  0.20960498  0.66407664  0.30347596     0.21000
C2132       C  0.19722349  0.64867618  0.30585666     0.03200
C2133       C  0.17726215  0.65140797  0.30510007    -0.22200
C2134       C  0.17048868  0.67020623  0.30219293     0.12400
S2135       S  0.17217699  0.70729842  0.29750212    -0.05800
C2136       C  0.15042833  0.69564467  0.29824273    -0.09300
C2137       C  0.15168381  0.67589590  0.30071599    -0.25900
S2138       S  0.20861798  0.62710745  0.30921319    -0.03100
C2139       C  0.23011490  0.63907388  0.30674455    -0.16500
C2140       C  0.22840503  0.65861575  0.30377147    -0.14500
H2141       H  0.21266251  0.69476681  0.29924172     0.20800
H2142       H  0.16746825  0.63943814  0.30662083     0.16900
H2143       H  0.13951018  0.66626495  0.30145622     0.19400
H2144       H  0.24039238  0.66833812  0.30188439     0.12700
C2145       C  0.27374160  0.00091329  0.76328325     0.16600
C2146       C  0.27434688  0.01351978  0.74763945    -0.32400
C2147       C  0.27396950  0.03326097  0.75154499     0.21000
C2148       C  0.27318594  0.04018965  0.77017305     0.03200
C2149       C  0.27229969  0.02758608  0.78579388    -0.22200
C2150       C  0.27251932  0.00785289  0.78188258     0.12400
S2151       S  0.27505700  0.97647809  0.76170171    -0.05800
C2152       C  0.27367531  0.97562594  0.78635767    -0.09300
C2153       C  0.27225758  0.99340406  0.79515863    -0.25900
S2154       S  0.27370248  0.06463693  0.77189378    -0.03100
C2155       C  0.27456438  0.06553609  0.74722140    -0.16500
C2156       C  0.27463699  0.04774804  0.73830839    -0.14500
H2157       H  0.27530008  0.00818836  0.73308206     0.20800
H2158       H  0.27168555  0.03291988  0.80036911     0.16900
H2159       H  0.27176914  0.99567245  0.81051991     0.19400
H2160       H  0.27546264  0.04553068  0.72295487     0.12700
C2161       C  0.18620017  0.85571447  0.79700623     0.16600
C2162       C  0.20585376  0.85956140  0.79792304    -0.32400
C2163       C  0.21151213  0.87857310  0.80108128     0.21000
C2164       C  0.19827574  0.89320641  0.80350145     0.03200
C2165       C  0.17852732  0.88942254  0.80214440    -0.22200
C2166       C  0.17284668  0.87033889  0.79877222     0.12400
S2167       S  0.17657483  0.83341808  0.79390230    -0.05800
C2168       C  0.15423688  0.84383360  0.79459982    -0.09300
C2169       C  0.15440834  0.86360880  0.79716975    -0.25900
S2170       S  0.20836080  0.91509965  0.80852025    -0.03100
C2171       C  0.23051798  0.90432107  0.80676707    -0.16500
C2172       C  0.22996621  0.88492442  0.80264348    -0.14500
H2173       H  0.21630336  0.84818073  0.79642980     0.20800
H2174       H  0.16807467  0.90076585  0.80386433     0.16900
H2175       H  0.14172804  0.87251732  0.79806617     0.19400
H2176       H  0.24248256  0.87581706  0.80140972     0.12700
C2177       C  0.28298400  0.75837436  0.01042754     0.16600
C2178       C  0.28165590  0.75724141  0.03052555    -0.32400
C2179       C  0.26321822  0.75645358  0.03866753     0.21000
C2180       C  0.24692816  0.75712755  0.02727183     0.03200
C2181       C  0.24826115  0.75831632  0.00728504    -0.22200
C2182       C  0.26660140  0.75876541  0.99916603     0.12400
S2183       S  0.30387331  0.75845715  0.99755496    -0.05800
C2184       C  0.29029014  0.75867843  0.97684622    -0.09300
C2185       C  0.27068353  0.75894251  0.97995981    -0.25900
S2186       S  0.22590197  0.75577354  0.03957954    -0.03100
C2187       C  0.23901708  0.75398245  0.06044471    -0.16500
C2188       C  0.25876358  0.75457660  0.05782080    -0.14500
H2189       H  0.29439991  0.75662458  0.03937545     0.20800
H2190       H  0.23551867  0.75851886  0.99840695     0.16900
H2191       H  0.25993971  0.75875387  0.96874232     0.19400
H2192       H  0.26923918  0.75354443  0.06923677     0.12700
C2193       C  0.30217667  0.83725208  0.89830506     0.16600
C2194       C  0.29386022  0.85509245  0.89404188    -0.32400
C2195       C  0.29687063  0.86262606  0.87558598     0.21000
C2196       C  0.30785256  0.85294492  0.86212580     0.03200
C2197       C  0.31664570  0.83549883  0.86658621    -0.22200
C2198       C  0.31348756  0.82789234  0.88488496     0.12400
S2199       S  0.29802996  0.82420539  0.91870297    -0.05800
C2200       C  0.31191170  0.80624135  0.90900286    -0.09300
C2201       C  0.31932822  0.81024973  0.89108030    -0.25900
S2202       S  0.30889302  0.86368455  0.84020973    -0.03100
C2203       C  0.29456538  0.88163198  0.84922034    -0.16500
C2204       C  0.28929475  0.87925923  0.86827872    -0.14500
H2205       H  0.28482588  0.86238401  0.90434846     0.20800
H2206       H  0.32501246  0.82782140  0.85599594     0.16900
H2207       H  0.32731839  0.80012754  0.88241689     0.19400
H2208       H  0.28029993  0.88906692  0.87627599     0.12700
C2209       C  0.38176427  0.72802689  0.82511838     0.16600
C2210       C  0.37996632  0.73121563  0.84488213    -0.32400
C2211       C  0.36153197  0.73478972  0.85213612     0.21000
C2212       C  0.34551996  0.73496151  0.84034942     0.03200
C2213       C  0.34731714  0.73191082  0.82057080    -0.22200
C2214       C  0.36578029  0.72859710  0.81329562     0.12400
S2215       S  0.40294829  0.72401197  0.81332430    -0.05800
C2216       C  0.39008606  0.72359117  0.79228752    -0.09300
C2217       C  0.37051708  0.72617218  0.79443762    -0.25900
S2218       S  0.32440982  0.73926784  0.85207123    -0.03100
C2219       C  0.33735182  0.74103803  0.87306601    -0.16500
C2220       C  0.35694256  0.73840102  0.87087436    -0.14500
H2221       H  0.39240067  0.73109155  0.85417847     0.20800
H2222       H  0.33491395  0.73228397  0.81123712     0.16900
H2223       H  0.36035484  0.72667036  0.78269684     0.19400
H2224       H  0.36729567  0.73893384  0.88243871     0.12700
C2225       C  0.24562675  0.52747498  0.73907317     0.16600
C2226       C  0.24510064  0.50746269  0.74122397    -0.32400
C2227       C  0.24599447  0.50000100  0.75990114     0.21000
C2228       C  0.24761563  0.51192741  0.77573570     0.03200
C2229       C  0.24806840  0.53195753  0.77359388    -0.22200
C2230       C  0.24689367  0.53942867  0.75491998     0.12400
S2231       S  0.24409483  0.53930780  0.71766963    -0.05800
C2232       C  0.24480780  0.56064871  0.73016448    -0.09300
C2233       C  0.24633963  0.55849327  0.74990825    -0.25900
S2234       S  0.24816633  0.50005682  0.79717727    -0.03100
C2235       C  0.24584986  0.47877899  0.78472517    -0.16500
C2236       C  0.24492125  0.48097978  0.76496306    -0.14500
H2237       H  0.24375847  0.49812081  0.72888632     0.20800
H2238       H  0.24899136  0.54131252  0.78596018     0.16900
H2239       H  0.24668315  0.57023670  0.76007211     0.19400
H2240       H  0.24314063  0.46931790  0.75485444     0.12700
C2241       C  0.31924478  0.64413626  0.70986887     0.16600
C2242       C  0.33854582  0.64793543  0.71392785    -0.32400
C2243       C  0.34372285  0.66706715  0.71755168     0.21000
C2244       C  0.33045864  0.68185604  0.71679028     0.03200
C2245       C  0.31121493  0.67808327  0.71265635    -0.22200
C2246       C  0.30597512  0.65894479  0.70943422     0.12400
S2247       S  0.30959255  0.62175088  0.70649514    -0.05800
C2248       C  0.28752909  0.63262151  0.70504051    -0.09300
C2249       C  0.28779502  0.65238425  0.70665252    -0.25900
S2250       S  0.33962915  0.70406121  0.72175648    -0.03100
C2251       C  0.36152762  0.69324211  0.72514264    -0.16500
C2252       C  0.36155313  0.67352245  0.72243131    -0.14500
H2253       H  0.34897247  0.63645957  0.71469660     0.20800
H2254       H  0.30069175  0.68949702  0.71241174     0.16900
H2255       H  0.27514551  0.66140397  0.70657909     0.19400
H2256       H  0.37400731  0.66437045  0.72392144     0.12700
C2257       C  0.25934007  0.78464438  0.52925614     0.16600
C2258       C  0.27498645  0.78425208  0.51660773    -0.32400
C2259       C  0.27110053  0.78492115  0.49684865     0.21000
C2260       C  0.25247848  0.78586578  0.48995529     0.03200
C2261       C  0.23682512  0.78588681  0.50259075    -0.22200
C2262       C  0.24071156  0.78529610  0.52234405     0.12400
S2263       S  0.26101544  0.78538643  0.55373330    -0.05800
C2264       C  0.23633595  0.78657478  0.55467285    -0.09300
C2265       C  0.22746325  0.78616647  0.53685167    -0.25900
S2266       S  0.25086686  0.78782015  0.46554816    -0.03100
C2267       C  0.27556592  0.78721650  0.46456943    -0.16500
C2268       C  0.28438778  0.78551890  0.48234861    -0.14500
H2269       H  0.28956674  0.78391685  0.52193815     0.20800
H2270       H  0.22226443  0.78680091  0.49727514     0.16900
H2271       H  0.21213517  0.78721370  0.53459423     0.19400
H2272       H  0.29975161  0.78538231  0.48460383     0.12700
C2273       C  0.20940321  0.70864094  0.63238424     0.16600
C2274       C  0.20943994  0.68860073  0.63480054    -0.32400
C2275       C  0.21533155  0.68131611  0.65269505     0.21000
C2276       C  0.22037304  0.69346097  0.66763260     0.03200
C2277       C  0.22045589  0.71336753  0.66518605    -0.22200
C2278       C  0.21516029  0.72057977  0.64721256     0.12400
S2279       S  0.20330814  0.72062324  0.61173149    -0.05800
C2280       C  0.20948293  0.74171550  0.62309625    -0.09300
C2281       C  0.21535223  0.73944754  0.64193366    -0.25900
S2282       S  0.22681377  0.68208185  0.68829058    -0.03100
C2283       C  0.22324214  0.66061268  0.67665191    -0.16500
C2284       C  0.21716573  0.66233457  0.65774937    -0.14500
H2285       H  0.20537514  0.67912229  0.62318687     0.20800
H2286       H  0.22479933  0.72283611  0.67671357     0.16900
H2287       H  0.21961579  0.75109530  0.65130486     0.19400
H2288       H  0.21424700  0.65037429  0.64827356     0.12700
C2289       C  0.16651412  0.79709955  0.68425232     0.16600
C2290       C  0.16314018  0.79293577  0.70354979    -0.32400
C2291       C  0.14552381  0.79850172  0.71131716     0.21000
C2292       C  0.13175627  0.80784989  0.70043959     0.03200
C2293       C  0.13483934  0.81135433  0.68082235    -0.22200
C2294       C  0.15257071  0.80575955  0.67300639     0.12400
S2295       S  0.18753504  0.79256105  0.67273433    -0.05800
C2296       C  0.17742212  0.80197416  0.65232910    -0.09300
C2297       C  0.15866602  0.80828250  0.65442955    -0.25900
S2298       S  0.11226299  0.81535379  0.71339899    -0.03100
C2299       C  0.12279938  0.80547221  0.73347266    -0.16500
C2300       C  0.14029196  0.79674440  0.73009081    -0.14500
H2301       H  0.17402408  0.78613519  0.71230039     0.20800
H2302       H  0.12416264  0.81861183  0.67219546     0.16900
H2303       H  0.15008870  0.81448870  0.64306726     0.19400
H2304       H  0.14927239  0.79039679  0.74106913     0.12700
C2305       C  0.77513690  0.00056643  0.76984678     0.16600
C2306       C  0.77517805  0.01335933  0.78534605    -0.32400
C2307       C  0.77593101  0.03303512  0.78115958     0.21000
C2308       C  0.77694289  0.03967351  0.76242801     0.03200
C2309       C  0.77683135  0.02691047  0.74696712    -0.22200
C2310       C  0.77572984  0.00729728  0.75113560     0.12400
S2311       S  0.77444324  0.97612685  0.77174998    -0.05800
C2312       C  0.77451418  0.97510288  0.74707069    -0.09300
C2313       C  0.77524520  0.99277161  0.73802599    -0.25900
S2314       S  0.77821930  0.06400731  0.76031944    -0.03100
C2315       C  0.77700604  0.06531505  0.78493243    -0.16500
C2316       C  0.77585082  0.04773287  0.79417036    -0.14500
H2317       H  0.77459143  0.00822136  0.79999345     0.20800
H2318       H  0.77749851  0.03204375  0.73231918     0.16900
H2319       H  0.77578506  0.99486656  0.72263896     0.19400
H2320       H  0.77523719  0.04580986  0.80957379     0.12700
C2321       C  0.77083372  0.76626071  0.52033236     0.16600
C2322       C  0.77006386  0.76715515  0.50024781    -0.32400
C2323       C  0.75230915  0.76383325  0.49143546     0.21000
C2324       C  0.73591655  0.76062536  0.50225309     0.03200
C2325       C  0.73665462  0.75986624  0.52234426    -0.22200
C2326       C  0.75456678  0.76237165  0.53111102     0.12400
S2327       S  0.79135246  0.76793012  0.53343406    -0.05800
C2328       C  0.77812468  0.76245614  0.55359536    -0.09300
C2329       C  0.75863851  0.76019270  0.55028690    -0.25900
S2330       S  0.71582697  0.75663430  0.48900488    -0.03100
C2331       C  0.72967940  0.75869965  0.46862808    -0.16500
C2332       C  0.74887682  0.76254609  0.47204152    -0.14500
H2333       H  0.78289789  0.76956744  0.49184249     0.20800
H2334       H  0.72395412  0.75671826  0.53071403     0.16900
H2335       H  0.74819612  0.75635065  0.56112647     0.19400
H2336       H  0.75969887  0.76411250  0.46101428     0.12700
C2337       C  0.79604812  0.83414296  0.63781205     0.16600
C2338       C  0.79852211  0.85354344  0.64243335    -0.32400
C2339       C  0.79122599  0.85989208  0.66005457     0.21000
C2340       C  0.78202932  0.84745073  0.67259880     0.03200
C2341       C  0.77907996  0.82820378  0.66774056    -0.22200
C2342       C  0.78623820  0.82190335  0.65007117     0.12400
S2343       S  0.80513582  0.82324966  0.61785386    -0.05800
C2344       C  0.79527899  0.80211609  0.62597897    -0.09300
C2345       C  0.78546454  0.80356846  0.64318310    -0.25900
S2346       S  0.77527079  0.85760385  0.69378198    -0.03100
C2347       C  0.78451315  0.87890074  0.68544611    -0.16500
C2348       C  0.79240564  0.87812448  0.66725653    -0.14500
H2349       H  0.80611956  0.86317682  0.63289065     0.20800
H2350       H  0.77183823  0.81847457  0.67746671     0.16900
H2351       H  0.77890700  0.79163777  0.65069929     0.19400
H2352       H  0.79889448  0.89016974  0.65987462     0.12700
C2353       C  0.73986696  0.78853127  0.00126562     0.16600
C2354       C  0.74166323  0.78846517  0.02133200    -0.32400
C2355       C  0.76022669  0.78822056  0.02912631     0.21000
C2356       C  0.77629862  0.78799154  0.01743089     0.03200
C2357       C  0.77450528  0.78835591  0.99733539    -0.22200
C2358       C  0.75591465  0.78866704  0.98952850     0.12400
S2359       S  0.71860085  0.78854810  0.98913741    -0.05800
C2360       C  0.73133007  0.78897896  0.96791488    -0.09300
C2361       C  0.75111789  0.78909956  0.97034265    -0.25900
S2362       S  0.79752719  0.78752548  0.02970557    -0.03100
C2363       C  0.78467260  0.78789106  0.05087263    -0.16500
C2364       C  0.76492151  0.78828293  0.04830581    -0.14500
H2365       H  0.72911540  0.78856272  0.03047661     0.20800
H2366       H  0.78705378  0.78837378  0.98819308     0.16900
H2367       H  0.76141736  0.78949260  0.95872955     0.19400
H2368       H  0.75454683  0.78881314  0.05984730     0.12700
C2369       C  0.51191757  0.78931437  0.74715170     0.16600
C2370       C  0.49185598  0.78844749  0.74823170    -0.32400
C2371       C  0.48327054  0.77026081  0.74822836     0.21000
C2372       C  0.49423531  0.75368248  0.74748514     0.03200
C2373       C  0.51429676  0.75454844  0.74630288    -0.22200
C2374       C  0.52286796  0.77274943  0.74601635     0.12400
S2375       S  0.52493028  0.80999552  0.74664234    -0.05800
C2376       C  0.54539050  0.79626473  0.74458000    -0.09300
C2377       C  0.54213002  0.77663576  0.74441989    -0.25900
S2378       S  0.48116887  0.73303260  0.74733061    -0.03100
C2379       C  0.46065053  0.74683514  0.74782257    -0.16500
C2380       C  0.46393927  0.76643726  0.74836251    -0.14500
H2381       H  0.48330647  0.80139721  0.74879969     0.20800
H2382       H  0.52282514  0.74160380  0.74539352     0.16900
H2383       H  0.55320194  0.76583184  0.74311984     0.19400
H2384       H  0.45282903  0.77727990  0.74836792     0.12700
C2385       C  0.62677681  0.81741322  0.82355479     0.16600
C2386       C  0.63073665  0.81869878  0.84329617    -0.32400
C2387       C  0.64858233  0.81176677  0.84973893     0.21000
C2388       C  0.66200258  0.80439292  0.83704348     0.03200
C2389       C  0.65793425  0.80284069  0.81750694    -0.22200
C2390       C  0.64002810  0.80926488  0.81119055     0.12400
S2391       S  0.60621887  0.82518696  0.81239334    -0.05800
C2392       C  0.61550389  0.81657621  0.79115140    -0.09300
C2393       C  0.63356557  0.80854790  0.79277511    -0.25900
S2394       S  0.68303145  0.79734286  0.84730117    -0.03100
C2395       C  0.67354681  0.80375420  0.86910706    -0.16500
C2396       C  0.65508047  0.81118262  0.86832907    -0.14500
H2397       H  0.62039251  0.82473661  0.85316969     0.20800
H2398       H  0.66827195  0.79678121  0.80763068     0.16900
H2399       H  0.64178180  0.80281388  0.78089914     0.19400
H2400       H  0.64695365  0.81597389  0.88066248     0.12700
C2401       C  0.67871901  0.86069580  0.73128153     0.16600
C2402       C  0.69839184  0.86408268  0.73300179    -0.32400
C2403       C  0.70502342  0.88266730  0.72923651     0.21000
C2404       C  0.69276126  0.89730562  0.72370470     0.03200
C2405       C  0.67293130  0.89403545  0.72245015    -0.22200
C2406       C  0.66624782  0.87541483  0.72645297     0.12400
S2407       S  0.66799967  0.83896656  0.73489099    -0.05800
C2408       C  0.64637400  0.84987062  0.73034753    -0.09300
C2409       C  0.64757390  0.86930091  0.72611067    -0.25900
S2410       S  0.70417054  0.91845256  0.71830793    -0.03100
C2411       C  0.72548535  0.90742235  0.72417529    -0.16500
C2412       C  0.72368579  0.88847974  0.72982680    -0.14500
H2413       H  0.70815592  0.85267011  0.73694535     0.20800
H2414       H  0.66318703  0.90540108  0.71833649     0.16900
H2415       H  0.63541812  0.87844481  0.72299429     0.19400
H2416       H  0.73558860  0.87919067  0.73347835     0.12700
C2417       C  0.99254151  0.76758417  0.77333418     0.16600
C2418       C  0.00557012  0.78290330  0.77405848    -0.32400
C2419       C  0.02512989  0.77854337  0.77588876     0.21000
C2420       C  0.03156603  0.75976028  0.77679428     0.03200
C2421       C  0.01854439  0.74437856  0.77558985    -0.22200
C2422       C  0.99890419  0.74875533  0.77390456     0.12400
S2423       S  0.96812903  0.76996783  0.77282000    -0.05800
C2424       C  0.96633470  0.74530456  0.77319685    -0.09300
C2425       C  0.98392282  0.73590108  0.77357752    -0.25900
S2426       S  0.05585671  0.75771157  0.78019974    -0.03100
C2427       C  0.05728314  0.78244403  0.78037838    -0.16500
C2428       C  0.03977688  0.79153992  0.77773501    -0.14500
H2429       H  0.00062518  0.79762505  0.77376084     0.20800
H2430       H  0.02344597  0.72966589  0.77643782     0.16900
H2431       H  0.98563425  0.72048168  0.77440956     0.19400
H2432       H  0.03778093  0.80694917  0.77760864     0.12700
C2433       C  0.88170049  0.72475514  0.69605468     0.16600
C2434       C  0.87656215  0.72224813  0.67674092    -0.32400
C2435       C  0.85950757  0.73090487  0.67038300     0.21000
C2436       C  0.84792810  0.74131795  0.68275738     0.03200
C2437       C  0.85328083  0.74418537  0.70189636    -0.22200
C2438       C  0.87044236  0.73579127  0.70815099     0.12400
S2439       S  0.90131748  0.71473922  0.70698444    -0.05800
C2440       C  0.89450844  0.72603894  0.72788507    -0.09300
C2441       C  0.87783907  0.73678430  0.72628443    -0.25900
S2442       S  0.82745110  0.75004494  0.67254549    -0.03100
C2443       C  0.83477858  0.73997787  0.65126755    -0.16500
C2444       C  0.85215332  0.73037072  0.65213411    -0.14500
H2445       H  0.88537867  0.71382441  0.66713755     0.20800
H2446       H  0.84439616  0.75250377  0.71153427     0.16900
H2447       H  0.87108419  0.74441196  0.73800785     0.19400
H2448       H  0.85898501  0.72338969  0.64006265     0.12700
C2449       C  0.74428324  0.52748385  0.78160778     0.16600
C2450       C  0.74301277  0.50750392  0.77954235    -0.32400
C2451       C  0.74329910  0.50000441  0.76087177     0.21000
C2452       C  0.74522728  0.51182623  0.74498283     0.03200
C2453       C  0.74639989  0.53180172  0.74704324    -0.22200
C2454       C  0.74566201  0.53933259  0.76568396     0.12400
S2455       S  0.74341164  0.53945041  0.80296463    -0.05800
C2456       C  0.74440211  0.56067682  0.79028967    -0.09300
C2457       C  0.74560296  0.55840121  0.77056665    -0.25900
S2458       S  0.74504451  0.49998120  0.72355914    -0.03100
C2459       C  0.74177639  0.47891454  0.73609346    -0.16500
C2460       C  0.74120453  0.48108809  0.75585153    -0.14500
H2461       H  0.74147577  0.49824243  0.79192158     0.20800
H2462       H  0.74744787  0.54109143  0.73463466     0.16900
H2463       H  0.74606138  0.57008089  0.76033028     0.19400
H2464       H  0.73899253  0.46950295  0.76596853     0.12700
C2465       C  0.83513778  0.67738858  0.79294946     0.16600
C2466       C  0.81540513  0.67393516  0.79305318    -0.32400
C2467       C  0.80907448  0.65614809  0.79987443     0.21000
C2468       C  0.82168784  0.64241918  0.80676984     0.03200
C2469       C  0.84157581  0.64575022  0.80636014    -0.22200
C2470       C  0.84797428  0.66348904  0.79908855     0.12400
S2471       S  0.84546002  0.69828453  0.78548631    -0.05800
C2472       C  0.86741568  0.68811706  0.79012466    -0.09300
C2473       C  0.86664934  0.66950010  0.79720529    -0.25900
S2474       S  0.81064948  0.62206453  0.81522042    -0.03100
C2475       C  0.78903059  0.63207159  0.80860852    -0.16500
C2476       C  0.79045478  0.65021532  0.80070174    -0.14500
H2477       H  0.80538497  0.68466594  0.78799558     0.20800
H2478       H  0.85158824  0.63503090  0.81144299     0.16900
H2479       H  0.87905673  0.66099635  0.80104621     0.19400
H2480       H  0.77836627  0.65877526  0.79602392     0.12700
C2481       C  0.72224291  0.69390427  0.85313162     0.16600
C2482       C  0.72194108  0.71379104  0.85589640    -0.32400
C2483       C  0.71623214  0.72064780  0.87391312     0.21000
C2484       C  0.71055505  0.70836367  0.88848878     0.03200
C2485       C  0.71110991  0.68837281  0.88579746    -0.22200
C2486       C  0.71730596  0.68146664  0.86786326     0.12400
S2487       S  0.72878785  0.68285942  0.83227726    -0.05800
C2488       C  0.72545730  0.66118245  0.84362447    -0.09300
C2489       C  0.71936594  0.66259300  0.86253661    -0.25900
S2490       S  0.70353588  0.71989446  0.90911487    -0.03100
C2491       C  0.70905726  0.74134842  0.89809890    -0.16500
C2492       C  0.71559065  0.73946598  0.87940863    -0.14500
H2493       H  0.72612934  0.72352263  0.84452286     0.20800
H2494       H  0.70703905  0.67863996  0.89720188     0.16900
H2495       H  0.71647457  0.65046445  0.87180968     0.19400
H2496       H  0.71956607  0.75136950  0.87022623     0.12700
C2497       C  0.88939015  0.96886104  0.68337867     0.16600
C2498       C  0.86942255  0.96893859  0.68139598    -0.32400
C2499       C  0.85881091  0.95733311  0.69388997     0.21000
C2500       C  0.86762520  0.94647096  0.70803198     0.03200
C2501       C  0.88761466  0.94647611  0.71008545    -0.22200
C2502       C  0.89827552  0.95772581  0.69727111     0.12400
S2503       S  0.90476662  0.98113965  0.66892144    -0.05800
C2504       C  0.92341364  0.97076655  0.68136348    -0.09300
C2505       C  0.91787705  0.95872209  0.69615909    -0.25900
S2506       S  0.85219405  0.93312279  0.72154310    -0.03100
C2507       C  0.83372432  0.94201059  0.70773832    -0.16500
C2508       C  0.83935115  0.95481967  0.69363039    -0.14500
H2509       H  0.86249619  0.97732893  0.67031489     0.20800
H2510       H  0.89456644  0.93774830  0.72088288     0.16900
H2511       H  0.92763534  0.95084831  0.70531542     0.19400
H2512       H  0.82974304  0.96179895  0.68362439     0.12700
C2513       C  0.17880703  0.91048324  0.56811495     0.16600
C2514       C  0.17618135  0.89059543  0.56651772    -0.32400
C2515       C  0.18838111  0.87863788  0.57713202     0.21000
C2516       C  0.20277071  0.88612340  0.58864631     0.03200
C2517       C  0.20533965  0.90605845  0.59033846    -0.22200
C2518       C  0.19291944  0.91804430  0.57992670     0.12400
S2519       S  0.16521930  0.92730902  0.55664558    -0.05800
C2520       C  0.17835626  0.94482416  0.56816621    -0.09300
C2521       C  0.19265035  0.93778318  0.58011765    -0.25900
S2522       S  0.21598072  0.86910938  0.60038528    -0.03100
C2523       C  0.20173604  0.85173601  0.58992286    -0.16500
C2524       C  0.18767390  0.85896274  0.57785659    -0.14500
H2525       H  0.16496243  0.88469353  0.55753247     0.20800
H2526       H  0.21638151  0.91196522  0.59953682     0.16900
H2527       H  0.20221381  0.94662195  0.58859616     0.19400
H2528       H  0.17731821  0.85028692  0.57017705     0.12700
C2529       C  0.09195265  0.98208426  0.61688178     0.16600
C2530       C  0.08017252  0.97653404  0.63229907    -0.32400
C2531       C  0.06067312  0.98156679  0.63145026     0.21000
C2532       C  0.05346340  0.99193152  0.61606728     0.03200
C2533       C  0.06510508  0.99715448  0.60059072    -0.22200
C2534       C  0.08441554  0.99184868  0.60127145     0.12400
S2535       S  0.11610360  0.97816677  0.61538389    -0.05800
C2536       C  0.11580079  0.98934534  0.59332271    -0.09300
C2537       C  0.09794940  0.99578125  0.58757764    -0.25900
S2538       S  0.02979225  0.99730762  0.61770257    -0.03100
C2539       C  0.02920622  0.98508230  0.63914938    -0.16500
C2540       C  0.04667337  0.97734607  0.64476765    -0.14500
H2541       H  0.08595955  0.96873622  0.64441669     0.20800
H2542       H  0.05934392  0.00507487  0.58853462     0.16900
H2543       H  0.09516874  0.00353423  0.57440194     0.19400
H2544       H  0.04898624  0.96919746  0.65778593     0.12700
C2545       C  0.08007088  0.21409532  0.61868941     0.16600
C2546       C  0.08764078  0.22330951  0.63487822    -0.32400
C2547       C  0.08211636  0.21636235  0.65295147     0.21000
C2548       C  0.06965608  0.20094738  0.65483813     0.03200
C2549       C  0.06187105  0.19197207  0.63870032    -0.22200
C2550       C  0.06733543  0.19892466  0.62068349     0.12400
S2551       S  0.08559555  0.21959724  0.59542492    -0.05800
C2552       C  0.07030418  0.20146497  0.58846526    -0.09300
C2553       C  0.06156012  0.19176824  0.60341642    -0.25900
S2554       S  0.06554971  0.19392346  0.67789825    -0.03100
C2555       C  0.08072672  0.21198396  0.68514663    -0.16500
C2556       C  0.08838013  0.22289745  0.67036242    -0.14500
H2557       H  0.09762844  0.23514050  0.63345962     0.20800
H2558       H  0.05219287  0.17988430  0.64011621     0.16900
H2559       H  0.05182660  0.17975662  0.60173507     0.19400
H2560       H  0.09845575  0.23459208  0.67222548     0.12700
C2561       C  0.09789429  0.10201948  0.55010219     0.16600
C2562       C  0.10070574  0.08218265  0.54948047    -0.32400
C2563       C  0.11876961  0.07515223  0.55465005     0.21000
C2564       C  0.13335053  0.08718446  0.56084866     0.03200
C2565       C  0.13058191  0.10718059  0.56134671    -0.22200
C2566       C  0.11259574  0.11430009  0.55552325     0.12400
S2567       S  0.07713193  0.11317122  0.54361711    -0.05800
C2568       C  0.08845595  0.13474050  0.54748427    -0.09300
C2569       C  0.10728186  0.13322526  0.55386348    -0.25900
S2570       S  0.15409611  0.07534677  0.56689370    -0.03100
C2571       C  0.14305585  0.05420803  0.56021258    -0.16500
C2572       C  0.12431277  0.05637587  0.55406506    -0.14500
H2573       H  0.08937475  0.07262618  0.54479115     0.20800
H2574       H  0.14201057  0.11675859  0.56572422     0.16900
H2575       H  0.11658879  0.14529723  0.55690495     0.19400
H2576       H  0.11511589  0.04469109  0.54950525     0.12700
C2577       C  0.94857101  0.83999363  0.40259868     0.16600
C2578       C  0.95189540  0.84171174  0.38283037    -0.32400
C2579       C  0.93957529  0.83175799  0.37041956     0.21000
C2580       C  0.92501393  0.82013100  0.37743265     0.03200
C2581       C  0.92174931  0.81836214  0.39716819    -0.22200
C2582       C  0.93367429  0.82876443  0.40954303     0.12400
S2583       S  0.96108947  0.85186112  0.41994383    -0.05800
C2584       C  0.94575541  0.84201557  0.43668076    -0.09300
C2585       C  0.93195176  0.82989131  0.42909855    -0.25900
S2586       S  0.91139092  0.80949285  0.36017856    -0.03100
C2587       C  0.92501738  0.82127996  0.34327978    -0.16500
C2588       C  0.93960098  0.83256247  0.35074561    -0.14500
H2589       H  0.96322550  0.85083644  0.37736192     0.20800
H2590       H  0.91007551  0.80966832  0.40261571     0.16900
H2591       H  0.92098456  0.82264507  0.43738601     0.19400
H2592       H  0.94946094  0.84107805  0.34227414     0.12700
C2593       C  0.95598616  0.93266939  0.58651939     0.16600
C2594       C  0.95188465  0.92810366  0.56738636    -0.32400
C2595       C  0.95101889  0.90863018  0.56237272     0.21000
C2596       C  0.95368564  0.89422151  0.57582693     0.03200
C2597       C  0.95773937  0.89881046  0.59503609    -0.22200
C2598       C  0.95902169  0.91834785  0.59998352     0.12400
S2599       S  0.95841900  0.95546261  0.59523286    -0.05800
C2600       C  0.96396490  0.94569680  0.61723955    -0.09300
C2601       C  0.96366836  0.92575092  0.61765129    -0.25900
S2602       S  0.95276712  0.87144120  0.56647406    -0.03100
C2603       C  0.94912248  0.88158947  0.54425978    -0.16500
C2604       C  0.94847517  0.90145418  0.54428209    -0.14500
H2605       H  0.94989586  0.93925871  0.55675694     0.20800
H2606       H  0.96023868  0.88766058  0.60555613     0.16900
H2607       H  0.96682796  0.91712322  0.63017601     0.19400
H2608       H  0.94684892  0.91020683  0.53153822     0.12700
C2609       C  0.83752208  0.16708631  0.45288377     0.16600
C2610       C  0.84550899  0.15202991  0.46357762    -0.32400
C2611       C  0.83931215  0.13331446  0.45938047     0.21000
C2612       C  0.82584937  0.12977339  0.44516218     0.03200
C2613       C  0.81768064  0.14480095  0.43473073    -0.22200
C2614       C  0.82381097  0.16344255  0.43894014     0.12400
S2615       S  0.84342406  0.19080073  0.45519131    -0.05800
C2616       C  0.82702426  0.19572147  0.43735706    -0.09300
C2617       C  0.81765647  0.17978905  0.43010816    -0.25900
S2618       S  0.82104075  0.10611722  0.44132911    -0.03100
C2619       C  0.83720232  0.10082974  0.45919728    -0.16500
C2620       C  0.84575291  0.11669617  0.46766778    -0.14500
H2621       H  0.85623718  0.15474517  0.47447732     0.20800
H2622       H  0.80719187  0.14205897  0.42360435     0.16900
H2623       H  0.80699725  0.18012953  0.41881146     0.19400
H2624       H  0.85661284  0.11606490  0.47875512     0.12700
C2625       C  0.89891822  0.93219933  0.47194017     0.16600
C2626       C  0.88357467  0.94436668  0.46734550    -0.32400
C2627       C  0.88537310  0.96385413  0.47205059     0.21000
C2628       C  0.90172634  0.97086313  0.48097689     0.03200
C2629       C  0.91729610  0.95882386  0.48501898    -0.22200
C2630       C  0.91551207  0.93936521  0.48027561     0.12400
S2631       S  0.89885144  0.90788805  0.46898899    -0.05800
C2632       C  0.92156160  0.90743910  0.47870636    -0.09300
C2633       C  0.92871507  0.92524601  0.48389174    -0.25900
S2634       S  0.90072314  0.99462887  0.48660114    -0.03100
C2635       C  0.87814562  0.99526299  0.47658201    -0.16500
C2636       C  0.87187562  0.97791104  0.46916130    -0.14500
H2637       H  0.87062249  0.93880406  0.46081155     0.20800
H2638       H  0.93007741  0.96430875  0.49194970     0.16900
H2639       H  0.94242829  0.92759529  0.49080931     0.19400
H2640       H  0.85814708  0.97567755  0.46224761     0.12700
C2641       C  0.15115458  0.08111603  0.33796780     0.16600
C2642       C  0.13545507  0.07247019  0.34702520    -0.32400
C2643       C  0.11712814  0.07711227  0.34020570     0.21000
C2644       C  0.11450751  0.08973015  0.32504080     0.03200
C2645       C  0.13020256  0.09800152  0.31571173    -0.22200
C2646       C  0.14849774  0.09343456  0.32257344     0.12400
S2647       S  0.17451952  0.07839369  0.34478160    -0.05800
C2648       C  0.18069451  0.09386010  0.32653511    -0.09300
C2649       C  0.16539671  0.10066104  0.31586583    -0.25900
S2650       S  0.09113622  0.09474155  0.31991964    -0.03100
C2651       C  0.08484776  0.07959337  0.33834241    -0.16500
C2652       C  0.10010028  0.07100975  0.34772790    -0.14500
H2653       H  0.13740333  0.06294469  0.35913889     0.20800
H2654       H  0.12822999  0.10795572  0.30395083     0.16900
H2655       H  0.16653770  0.11073827  0.30409162     0.19400
H2656       H  0.09880349  0.06147240  0.35992767     0.12700
C2657       C  0.94738529  0.06969256  0.39313582     0.16600
C2658       C  0.92769969  0.06993916  0.39711349    -0.32400
C2659       C  0.92187471  0.06508722  0.41575242     0.21000
C2660       C  0.93506188  0.06077282  0.43001238     0.03200
C2661       C  0.95473570  0.06035156  0.42600608    -0.22200
C2662       C  0.96049559  0.06459875  0.40720363     0.12400
S2663       S  0.95739750  0.07482801  0.37131244    -0.05800
C2664       C  0.97930566  0.06917165  0.38107411    -0.09300
C2665       C  0.97882360  0.06409730  0.40028953    -0.25900
S2666       S  0.92506550  0.05549297  0.45175073    -0.03100
C2667       C  0.90289008  0.05847260  0.44130885    -0.16500
C2668       C  0.90336417  0.06358418  0.42211751    -0.14500
H2669       H  0.91734927  0.07345576  0.38608105     0.20800
H2670       H  0.96507080  0.05654984  0.43696509     0.16900
H2671       H  0.99130135  0.06037257  0.40876999     0.19400
H2672       H  0.89081411  0.06593173  0.41327186     0.12700
C2673       C  0.04166779  0.11462866  0.43666910     0.16600
C2674       C  0.03879626  0.11968853  0.45586397    -0.32400
C2675       C  0.04633596  0.13723819  0.46211455     0.21000
C2676       C  0.05660640  0.14918003  0.44996128     0.03200
C2677       C  0.05907756  0.14433286  0.43056417    -0.22200
C2678       C  0.05123368  0.12685606  0.42420580     0.12400
S2679       S  0.03377091  0.09381056  0.42647470    -0.05800
C2680       C  0.04287915  0.10186612  0.40501911    -0.09300
C2681       C  0.05171338  0.11969595  0.40586964    -0.25900
S2682       S  0.06576740  0.16920145  0.46095236    -0.03100
C2683       C  0.05514193  0.16153460  0.48191863    -0.16500
C2684       C  0.04518812  0.14439888  0.48030775    -0.14500
H2685       H  0.03108647  0.11029375  0.46555547     0.20800
H2686       H  0.06685301  0.15368996  0.42089698     0.16900
H2687       H  0.05801483  0.12703193  0.39370750     0.19400
H2688       H  0.03803862  0.13717541  0.49207172     0.12700
C2689       C  0.86597007  0.09056324  0.83615115     0.16600
C2690       C  0.88207385  0.08205552  0.84456192    -0.32400
C2691       C  0.90010663  0.08689957  0.83708447     0.21000
C2692       C  0.90214126  0.09975622  0.82204064     0.03200
C2693       C  0.88602073  0.10811042  0.81349757    -0.22200
C2694       C  0.86797986  0.10316184  0.82088845     0.12400
S2695       S  0.84278864  0.08674298  0.84318037    -0.05800
C2696       C  0.83577479  0.10211735  0.82517515    -0.09300
C2697       C  0.85070753  0.10976823  0.81450137    -0.25900
S2698       S  0.92539185  0.10431119  0.81565977    -0.03100
C2699       C  0.93235849  0.08848144  0.83328568    -0.16500
C2700       C  0.91737658  0.08026255  0.84345392    -0.14500
H2701       H  0.88063184  0.07215801  0.85644811     0.20800
H2702       H  0.88746645  0.11810448  0.80169254     0.16900
H2703       H  0.84901534  0.11969750  0.80267168     0.19400
H2704       H  0.91906564  0.07027963  0.85523916     0.12700
C2705       C  0.99561318  0.02641587  0.77437627     0.16600
C2706       C  0.99556781  0.01078539  0.76174590    -0.32400
C2707       C  0.99313177  0.01460053  0.74214247     0.21000
C2708       C  0.99086997  0.03314679  0.73532881     0.03200
C2709       C  0.99129750  0.04884469  0.74793979    -0.22200
C2710       C  0.99372172  0.04501964  0.76758322     0.12400
S2711       S  0.99684806  0.02463461  0.79878939    -0.05800
C2712       C  0.99499336  0.04924177  0.79991077    -0.09300
C2713       C  0.99362279  0.05821720  0.78218256    -0.25900
S2714       S  0.98689640  0.03452065  0.71112611    -0.03100
C2715       C  0.98847327  0.00984405  0.71019228    -0.16500
C2716       C  0.99193558  0.00122785  0.72780181    -0.14500
H2717       H  0.99690362  0.99623142  0.76701860     0.20800
H2718       H  0.98938822  0.06335583  0.74273096     0.16900
H2719       H  0.99175394  0.07350725  0.78014046     0.19400
H2720       H  0.99295785  0.98589295  0.73010016     0.12700
C2721       C  0.17697229  0.13502529  0.95683330     0.16600
C2722       C  0.17400713  0.15473900  0.95923212    -0.32400
C2723       C  0.18601599  0.16722114  0.94908812     0.21000
C2724       C  0.20052269  0.16033268  0.93734602     0.03200
C2725       C  0.20337908  0.14061184  0.93481674    -0.22200
C2726       C  0.19116492  0.12812616  0.94471459     0.12400
S2727       S  0.16386135  0.11768681  0.96784246    -0.05800
C2728       C  0.17741803  0.10092307  0.95579446    -0.09300
C2729       C  0.19138334  0.10846907  0.94388053    -0.25900
S2730       S  0.21345037  0.17769453  0.92612804    -0.03100
C2731       C  0.19882706  0.19443584  0.93690079    -0.16500
C2732       C  0.18490456  0.18685788  0.94886060    -0.14500
H2733       H  0.16271595  0.16009401  0.96844295     0.20800
H2734       H  0.21449275  0.13525514  0.92539361     0.16900
H2735       H  0.20116516  0.10008019  0.93522175     0.19400
H2736       H  0.17431045  0.19519147  0.95656281     0.12700
C2737       C  0.07142205  0.06614675  0.88239225     0.16600
C2738       C  0.09124373  0.06479963  0.88598639    -0.32400
C2739       C  0.09713982  0.06043313  0.90482639     0.21000
C2740       C  0.08388524  0.05771152  0.91940208     0.03200
C2741       C  0.06416884  0.05859499  0.91572085    -0.22200
C2742       C  0.05830704  0.06275865  0.89694648     0.12400
S2743       S  0.06106826  0.07209901  0.86081868    -0.05800
C2744       C  0.03895097  0.06945265  0.87155825    -0.09300
C2745       C  0.03975792  0.06435361  0.89075398    -0.25900
S2746       S  0.09371898  0.05345867  0.94142481    -0.03100
C2747       C  0.11604373  0.05493051  0.93098654    -0.16500
C2748       C  0.11568770  0.05860019  0.91136466    -0.14500
H2749       H  0.10159748  0.06723281  0.87467213     0.20800
H2750       H  0.05381235  0.05630155  0.92706887     0.16900
H2751       H  0.02731833  0.06228491  0.89983524     0.19400
H2752       H  0.12830810  0.06005600  0.90243390     0.12700
C2753       C  0.09680680  0.82321237  0.87817319     0.16600
C2754       C  0.09994809  0.82191088  0.89802834    -0.32400
C2755       C  0.08820824  0.83294100  0.91009002     0.21000
C2756       C  0.07398548  0.84467722  0.90264122     0.03200
C2757       C  0.07103569  0.84617964  0.88281889    -0.22200
C2758       C  0.08277994  0.83521306  0.87077911     0.12400
S2759       S  0.10914993  0.81067813  0.86117820    -0.05800
C2760       C  0.09537321  0.82183269  0.84391549    -0.09300
C2761       C  0.08200826  0.83464309  0.85111090    -0.25900
S2762       S  0.06097880  0.85661732  0.91947624    -0.03100
C2763       C  0.07490984  0.84591186  0.93686406    -0.16500
C2764       C  0.08890546  0.83366193  0.92979922    -0.14500
H2765       H  0.11096671  0.81262924  0.90380984     0.20800
H2766       H  0.05998394  0.85542531  0.87704082     0.16900
H2767       H  0.07216152  0.84295200  0.84244517     0.19400
H2768       H  0.09898058  0.82573886  0.93856131     0.12700
C2769       C  0.12310513  0.93011714  0.97569205     0.16600
C2770       C  0.13931315  0.94157928  0.97221458    -0.32400
C2771       C  0.13636451  0.96132301  0.96952185     0.21000
C2772       C  0.11808293  0.96916627  0.97031319     0.03200
C2773       C  0.10194620  0.95770651  0.97336085    -0.22200
C2774       C  0.10489216  0.93808837  0.97604121     0.12400
S2775       S  0.12348430  0.90601892  0.98015675    -0.05800
C2776       C  0.09885037  0.90683764  0.98222485    -0.09300
C2777       C  0.09094249  0.92481883  0.97963307    -0.25900
S2778       S  0.11733385  0.99339793  0.96830581    -0.03100
C2779       C  0.14187410  0.99310579  0.96614584    -0.16500
C2780       C  0.15022323  0.97511031  0.96680412    -0.14500
H2781       H  0.15357345  0.93545367  0.97198076     0.20800
H2782       H  0.08771741  0.96389176  0.97402448     0.16900
H2783       H  0.07577979  0.92805765  0.98053254     0.19400
H2784       H  0.16549623  0.97239647  0.96623742     0.12700
C2785       C  0.11631235  0.94836986  0.20182644     0.16600
C2786       C  0.13223437  0.94100285  0.21164686    -0.32400
C2787       C  0.15052353  0.94585671  0.20475201     0.21000
C2788       C  0.15290743  0.95748853  0.18879298     0.03200
C2789       C  0.13700687  0.96514555  0.17920317    -0.22200
C2790       C  0.11873154  0.96033218  0.18611894     0.12400
S2791       S  0.09287530  0.94349192  0.20728272    -0.05800
C2792       C  0.08631097  0.95798991  0.18838163    -0.09300
C2793       C  0.10158202  0.96605370  0.17849337    -0.25900
S2794       S  0.17625049  0.96079243  0.18207000    -0.03100
C2795       C  0.18289538  0.94649223  0.20108674    -0.16500
C2796       C  0.16769429  0.93965516  0.21197450    -0.14500
H2797       H  0.13045221  0.93165761  0.22392513     0.20800
H2798       H  0.13878791  0.97422002  0.16672225     0.16900
H2799       H  0.10019753  0.97532261  0.16610166     0.19400
H2800       H  0.16910402  0.93020771  0.22422579     0.12700
C2801       C  0.02342200  0.00239108  0.25598295     0.16600
C2802       C  0.02432729  0.00376640  0.27606690    -0.32400
C2803       C  0.02181115  0.02192898  0.28439341     0.21000
C2804       C  0.01826135  0.03797178  0.27319238     0.03200
C2805       C  0.01751273  0.03662655  0.25306221    -0.22200
C2806       C  0.02036234  0.01848716  0.24470255    -0.16400
S2807       S  0.02627265  0.98166437  0.24327895    -0.05800
C2808       C  0.02376103  0.99474309  0.22241277    -0.09300
C2809       C  0.02076286  0.01423678  0.22536394    -0.25900
S2810       S  0.01591199  0.05872884  0.28603529    -0.03100
C2811       C  0.02015578  0.04578617  0.30674400    -0.16500
C2812       C  0.02296678  0.02630598  0.30362925    -0.14500
H2813       H  0.02708940  0.99123298  0.28481534     0.20800
H2814       H  0.01507706  0.04921609  0.24429918     0.16900
H2815       H  0.01895403  0.02468897  0.21402017     0.19400
H2816       H  0.02622388  0.01598296  0.31476706     0.12700
C2817       C  0.05145155  0.92780034  0.09169251     0.16600
C2818       C  0.05569807  0.92485093  0.07230561    -0.32400
C2819       C  0.05661190  0.90589994  0.06568196     0.21000
C2820       C  0.05378251  0.89038326  0.07781425     0.03200
C2821       C  0.04935875  0.89334344  0.09728835    -0.22200
C2822       C  0.04812945  0.91242380  0.10387672     0.12400
S2823       S  0.04948642  0.94981014  0.10227488    -0.05800
C2824       C  0.04367293  0.93836731  0.12337489    -0.09300
C2825       C  0.04356905  0.91842605  0.12211467    -0.25900
S2826       S  0.05570315  0.86848493  0.06662081    -0.03100
C2827       C  0.05996496  0.88058242  0.04546929    -0.16500
C2828       C  0.05994564  0.90035530  0.04717800    -0.14500
H2829       H  0.05801694  0.93686399  0.06270871     0.20800
H2830       H  0.04681713  0.88133982  0.10682975     0.16900
H2831       H  0.04029830  0.90884192  0.13390159     0.19400
H2832       H  0.06212648  0.91020673  0.03534239     0.12700
C2833       C  0.83759182  0.91172295  0.06972890     0.16600
C2834       C  0.84109968  0.89204603  0.06734288    -0.32400
C2835       C  0.82903382  0.87915231  0.07700747     0.21000
C2836       C  0.81395284  0.88560674  0.08825129     0.03200
C2837       C  0.81049929  0.90525969  0.09069348    -0.22200
C2838       C  0.82277199  0.91814095  0.08133776     0.12400
S2839       S  0.85079789  0.92963571  0.05954981    -0.05800
C2840       C  0.83647244  0.94593832  0.07139687    -0.09300
C2841       C  0.82214497  0.93778760  0.08248450    -0.25900
S2842       S  0.80102751  0.86781202  0.09890849    -0.03100
C2843       C  0.81630398  0.85141761  0.08847644    -0.16500
C2844       C  0.83051203  0.85949133  0.07712037    -0.14500
H2845       H  0.85286558  0.88702162  0.05854585     0.20800
H2846       H  0.79891213  0.91028863  0.09972269     0.16900
H2847       H  0.81187801  0.94579170  0.09094482     0.19400
H2848       H  0.84145930  0.85145474  0.06959797     0.12700
C2849       C  0.94565568  0.97812583  0.14140212     0.16600
C2850       C  0.92568956  0.97770233  0.13837315    -0.32400
C2851       C  0.91866535  0.98456299  0.12069871     0.21000
C2852       C  0.93100840  0.99130347  0.10663235     0.03200
C2853       C  0.95083397  0.99217680  0.10984736    -0.22200
C2854       C  0.95780503  0.98556144  0.12753051     0.12400
S2855       S  0.95735350  0.96961206  0.16135746    -0.05800
C2856       C  0.97872605  0.97663237  0.15101934    -0.09300
C2857       C  0.97665982  0.98502979  0.13308718    -0.25900
S2858       S  0.91993739  0.99809866  0.08584010    -0.03100
C2859       C  0.89828959  0.99232955  0.09624499    -0.16500
C2860       C  0.89978691  0.98537964  0.11490196    -0.14500
H2861       H  0.91608258  0.97209363  0.14921397     0.20800
H2862       H  0.96045942  0.99761789  0.09893294     0.16900
H2863       H  0.98846696  0.99000345  0.12429258     0.19400
H2864       H  0.88773052  0.98099864  0.12366177     0.12700
C2865       C  0.93244574  0.21047460  0.11450552     0.16600
C2866       C  0.92469424  0.21982917  0.13051355    -0.32400
C2867       C  0.93041719  0.21338047  0.14869826     0.21000
C2868       C  0.94305338  0.19816976  0.15083232     0.03200
C2869       C  0.95089152  0.18895904  0.13487421    -0.22200
C2870       C  0.94539787  0.19555448  0.11675437     0.12400
S2871       S  0.92720336  0.21579569  0.09117273    -0.05800
C2872       C  0.94296904  0.19799357  0.08453258    -0.09300
C2873       C  0.95158631  0.18843893  0.09962284    -0.25900
S2874       S  0.94767707  0.19193008  0.17398009    -0.03100
C2875       C  0.93265118  0.21017819  0.18095487    -0.16500
C2876       C  0.92449224  0.22047401  0.16601587    -0.14500
H2877       H  0.91463901  0.23154067  0.12887654     0.20800
H2878       H  0.96081098  0.17713031  0.13650917     0.16900
H2879       H  0.96161610  0.17667776  0.09813395     0.19400
H2880       H  0.91444319  0.23218379  0.16773521     0.12700
C2881       C  0.97473720  0.11767817  0.92971925     0.16600
C2882       C  0.97574082  0.12099157  0.94940215    -0.32400
C2883       C  0.96839614  0.13828547  0.95627889     0.21000
C2884       C  0.95997675  0.15169927  0.94424934     0.03200
C2885       C  0.95927250  0.14853922  0.92433849    -0.22200
C2886       C  0.96705004  0.13126249  0.91736158     0.12400
S2887       S  0.98269414  0.09730640  0.91895804    -0.05800
C2888       C  0.97623936  0.10726938  0.89741104    -0.09300
C2889       C  0.96813830  0.12542460  0.89857162    -0.25900
S2890       S  0.95102460  0.17134847  0.95603653    -0.03100
C2891       C  0.95935306  0.16140972  0.97711052    -0.16500
C2892       C  0.96829576  0.14387364  0.97498148    -0.14500
H2893       H  0.98199034  0.11048421  0.95899536     0.20800
H2894       H  0.95296263  0.15901294  0.91475955     0.16900
H2895       H  0.96314856  0.13370802  0.88641422     0.19400
H2896       H  0.97408601  0.13539987  0.98665575     0.12700
C2897       C  0.87725493  0.08883462  0.06220648     0.16600
C2898       C  0.87980100  0.10855173  0.05864651    -0.32400
C2899       C  0.89817452  0.11477626  0.05296011     0.21000
C2900       C  0.91335964  0.10202686  0.05145778     0.03200
C2901       C  0.91085407  0.08249425  0.05508352    -0.22200
C2902       C  0.89250813  0.07625249  0.06021701     0.12400
S2903       S  0.85590648  0.07778206  0.06776811    -0.05800
C2904       C  0.86782227  0.05614987  0.06673398    -0.09300
C2905       C  0.88718330  0.05762525  0.06278575    -0.25900
S2906       S  0.93450385  0.11207008  0.04451245    -0.03100
C2907       C  0.92285032  0.13376304  0.04314645    -0.16500
C2908       C  0.90354132  0.13312535  0.04804193    -0.14500
H2909       H  0.86793103  0.11848114  0.05975649     0.20800
H2910       H  0.92261635  0.07249041  0.05350077     0.16900
H2911       H  0.89675909  0.04550445  0.06113303     0.19400
H2912       H  0.89406241  0.14541496  0.04820924     0.12700
C2913       C  0.69661732  0.88524402  0.92930238     0.16600
C2914       C  0.69933721  0.90497457  0.92648585    -0.32400
C2915       C  0.69074562  0.91754937  0.93958591     0.21000
C2916       C  0.67997771  0.91074262  0.95486924     0.03200
C2917       C  0.67702199  0.89098760  0.95753567    -0.22200
C2918       C  0.68554166  0.87839575  0.94435499     0.12400
S2919       S  0.70646441  0.86779891  0.91536098    -0.05800
C2920       C  0.69548526  0.85099915  0.92981506    -0.09300
C2921       C  0.68459640  0.85867395  0.94457856    -0.25900
S2922       S  0.67071154  0.92832088  0.96911981    -0.03100
C2923       C  0.68112468  0.94507064  0.95413781    -0.16500
C2924       C  0.69143445  0.93724178  0.93905135    -0.14500
H2925       H  0.70784979  0.91028740  0.91462297     0.20800
H2926       H  0.66848016  0.88567661  0.96937697     0.16900
H2927       H  0.67685255  0.85030949  0.95513831     0.19400
H2928       H  0.69863926  0.94549249  0.92802976     0.12700
C2929       C  0.74899448  0.01519684  0.99628995     0.16600
C2930       C  0.76902955  0.01510076  0.99823277    -0.32400
C2931       C  0.77668093  0.01465354  0.01684531     0.21000
C2932       C  0.76487566  0.01494499  0.03284050     0.03200
C2933       C  0.74479284  0.01520001  0.03090247    -0.22200
C2934       C  0.73712878  0.01498885  0.01224687     0.12400
S2935       S  0.73711947  0.01413261  0.97492903    -0.05800
C2936       C  0.71586532  0.01269929  0.98748122    -0.09300
C2937       C  0.71803799  0.01355059  0.00729051    -0.25900
S2938       S  0.77696809  0.01371374  0.05413786    -0.03100
C2939       C  0.79816490  0.01223800  0.04140352    -0.16500
C2940       C  0.79577035  0.01306920  0.02164182    -0.14500
H2941       H  0.77825069  0.01471583  0.98574463     0.20800
H2942       H  0.73556101  0.01489853  0.04338561     0.16900
H2943       H  0.70637876  0.01252261  0.01749690     0.19400
H2944       H  0.80732575  0.01210194  0.01131563     0.12700
C2945       C  0.56951585  0.19594377  0.89608157     0.16600
C2946       C  0.56720067  0.19251317  0.87643073    -0.32400
C2947       C  0.57800645  0.20361120  0.86364570     0.21000
C2948       C  0.59047917  0.21770489  0.87010519     0.03200
C2949       C  0.59298831  0.22101349  0.88987252    -0.22200
C2950       C  0.58227428  0.20970290  0.90272587     0.12400
S2951       S  0.55755234  0.18389572  0.91363121    -0.05800
C2952       C  0.57001691  0.19717285  0.93032843    -0.09300
C2953       C  0.58277628  0.21036937  0.92249284    -0.25900
S2954       S  0.60199949  0.22975046  0.85206691    -0.03100
C2955       C  0.59007550  0.21540257  0.83573216    -0.16500
C2956       C  0.57781197  0.20213111  0.84402261    -0.14500
H2957       H  0.55739310  0.18159239  0.87131734     0.20800
H2958       H  0.60287373  0.23185850  0.89498921     0.16900
H2959       H  0.59187164  0.21987104  0.93076512     0.19400
H2960       H  0.56920112  0.19189800  0.83610495     0.12700
C2961       C  0.63488609  0.08673307  0.96137548     0.16600
C2962       C  0.63175137  0.10663417  0.96038862    -0.32400
C2963       C  0.61422356  0.11371719  0.96744751     0.21000
C2964       C  0.60028776  0.10148972  0.97470125     0.03200
C2965       C  0.60353859  0.08173614  0.97596426    -0.22200
C2966       C  0.62116391  0.07474666  0.96935952     0.12400
S2967       S  0.65510492  0.07500082  0.95364522    -0.05800
C2968       C  0.64513357  0.05395305  0.96200518    -0.09300
C2969       C  0.62703004  0.05606330  0.96991922    -0.25900
S2970       S  0.57976206  0.11262344  0.98198109    -0.03100
C2971       C  0.59019952  0.13410702  0.97578113    -0.16500
C2972       C  0.60858435  0.13257878  0.96829259    -0.14500
H2973       H  0.64251910  0.11617248  0.95451000     0.20800
H2974       H  0.59282054  0.07221241  0.98197046     0.16900
H2975       H  0.61850923  0.04441687  0.97571650     0.19400
H2976       H  0.61727643  0.14460300  0.96365883     0.12700
C2977       C  0.62156466  0.08130184  0.18727484     0.16600
C2978       C  0.64131327  0.07776935  0.18694018    -0.32400
C2979       C  0.65310198  0.08994901  0.19770807     0.21000
C2980       C  0.64554373  0.10475205  0.20864330     0.03200
C2981       C  0.62578618  0.10836155  0.20888338    -0.22200
C2982       C  0.61401580  0.09638498  0.19782510     0.12400
S2983       S  0.60498717  0.06838711  0.17484240    -0.05800
C2984       C  0.58769033  0.08368981  0.18361013    -0.09300
C2985       C  0.59452991  0.09789148  0.19572004    -0.25900
S2986       S  0.66225613  0.11790229  0.22070828    -0.03100
C2987       C  0.67961006  0.10362187  0.21048292    -0.16500
C2988       C  0.67269682  0.08930450  0.19859676    -0.14500
H2989       H  0.64724762  0.06619578  0.17845717     0.20800
H2990       H  0.61988430  0.12011779  0.21713230     0.16900
H2991       H  0.58576652  0.10877400  0.20248725     0.19400
H2992       H  0.68153498  0.07914365  0.19086763     0.12700
C2993       C  0.55378261  0.15404175  0.07225341     0.16600
C2994       C  0.55086288  0.15131271  0.09202173    -0.32400
C2995       C  0.54884144  0.13235243  0.09869188     0.21000
C2996       C  0.54990940  0.11684286  0.08627806     0.03200
C2997       C  0.55260924  0.11957051  0.06658859    -0.22200
C2998       C  0.55437566  0.13844405  0.05991821     0.12400
S2999       S  0.55650857  0.17580464  0.06101331    -0.05800
C3000       C  0.55806354  0.16358851  0.03958912    -0.09300
C3001       C  0.55662250  0.14385874  0.04121646    -0.25900
S3002       S  0.54734860  0.09499353  0.09701899    -0.03100
C3003       C  0.54443417  0.10675701  0.11852346    -0.16500
C3004       C  0.54558085  0.12663467  0.11727024    -0.14500
H3005       H  0.55010254  0.16340498  0.10174294     0.20800
H3006       H  0.55319450  0.10748219  0.05684430     0.16900
H3007       H  0.55714146  0.13397569  0.02923003     0.19400
H3008       H  0.54405501  0.13636160  0.12928521     0.12700
C3009       C  0.40093224  0.95253715  0.82947160     0.16600
C3010       C  0.38568415  0.94323561  0.82040601    -0.32400
C3011       C  0.36713181  0.94781377  0.82643175     0.21000
C3012       C  0.36376345  0.96107847  0.84085788     0.03200
C3013       C  0.37907836  0.97066280  0.84977619    -0.22200
C3014       C  0.39773670  0.96604878  0.84372339     0.12400
S3015       S  0.42443865  0.94814060  0.82468489    -0.05800
C3016       C  0.43020598  0.96476690  0.84196795    -0.09300
C3017       C  0.41458387  0.97330303  0.85087567    -0.25900
S3018       S  0.34004084  0.96385774  0.84649774    -0.03100
C3019       C  0.33478301  0.94709314  0.82908547    -0.16500
C3020       C  0.35061925  0.93987458  0.81956128    -0.14500
H3021       H  0.38818765  0.93265492  0.80931544     0.20800
H3022       H  0.37658761  0.98101015  0.86108191     0.16900
H3023       H  0.41551544  0.98385406  0.86223790     0.19400
H3024       H  0.35011362  0.92909075  0.80838552     0.12700
C3025       C  0.57177724  0.98128592  0.88332890     0.16600
C3026       C  0.59163566  0.97963946  0.88644846    -0.32400
C3027       C  0.59859867  0.98420958  0.90485471     0.21000
C3028       C  0.58627318  0.98968935  0.91947722     0.03200
C3029       C  0.56666217  0.99173794  0.91623613    -0.22200
C3030       C  0.55981817  0.98765927  0.89787413     0.12400
S3031       S  0.55993409  0.97560427  0.86251456    -0.05800
C3032       C  0.53896757  0.98263117  0.87358157    -0.09300
C3033       C  0.54115942  0.98878996  0.89227186    -0.25900
S3034       S  0.59703353  0.99412132  0.94090232    -0.03100
C3035       C  0.61860047  0.98933382  0.93006788    -0.16500
C3036       C  0.61737665  0.98420577  0.91083366    -0.14500
H3037       H  0.60117636  0.97499326  0.87511777     0.20800
H3038       H  0.55710908  0.99633907  0.92758140     0.16900
H3039       H  0.52950231  0.99309995  0.90159344     0.19400
H3040       H  0.62952451  0.98090849  0.90174390     0.12700
C3041       C  0.31067671  0.16188567  0.08613992     0.16600
C3042       C  0.30942493  0.14201699  0.08889987    -0.32400
C3043       C  0.32117487  0.13029658  0.07759813     0.21000
C3044       C  0.33324538  0.13800343  0.06377574     0.03200
C3045       C  0.33448202  0.15788519  0.06098435    -0.22200
C3046       C  0.32312718  0.16963513  0.07268171     0.12400
S3047       S  0.29841940  0.17847209  0.09921657    -0.05800
C3048       C  0.31065622  0.19607099  0.08692051    -0.09300
C3049       C  0.32323928  0.18931326  0.07310295    -0.25900
S3050       S  0.34647792  0.12141284  0.05168934    -0.03100
C3051       C  0.33599458  0.10392647  0.06571715    -0.16500
C3052       C  0.32274618  0.11072064  0.07885165    -0.14500
H3053       H  0.30004806  0.13598816  0.09972344     0.20800
H3054       H  0.34422461  0.16393946  0.05050090     0.16900
H3055       H  0.33228061  0.19828144  0.06419333     0.19400
H3056       H  0.31484765  0.10186021  0.08888085     0.12700
C3057       C  0.27744073  0.03545030  0.00850178     0.16600
C3058       C  0.26459760  0.03371934  0.99307519    -0.32400
C3059       C  0.24486014  0.03481022  0.99705708     0.21000
C3060       C  0.23816384  0.03738561  0.01559350     0.03200
C3061       C  0.25099535  0.03871900  0.03107929    -0.22200
C3062       C  0.27073609  0.03772750  0.02707571     0.12400
S3063       S  0.30193829  0.03587599  0.00653419    -0.05800
C3064       C  0.30320972  0.03895465  0.03103601    -0.09300
C3065       C  0.28544097  0.03953132  0.04006577    -0.25900
S3066       S  0.21374943  0.03966008  0.01719407    -0.03100
C3067       C  0.21248579  0.03711552  0.99259960    -0.16500
C3068       C  0.23021410  0.03445568  0.98386404    -0.14500
H3069       H  0.26977637  0.03208580  0.97852636     0.20800
H3070       H  0.24583644  0.04090526  0.04556402     0.16900
H3071       H  0.28337418  0.04177841  0.05529736     0.19400
H3072       H  0.23235769  0.03304889  0.96854502     0.12700
C3073       C  0.44654153  0.07222477  0.13659681     0.16600
C3074       C  0.42677591  0.07389296  0.13281425    -0.32400
C3075       C  0.41988601  0.06631832  0.11536697     0.21000
C3076       C  0.43217273  0.05767336  0.10232692     0.03200
C3077       C  0.45163318  0.05546973  0.10638734    -0.22200
C3078       C  0.45844023  0.06285599  0.12372812     0.12400
S3079       S  0.45839826  0.08142617  0.15616701    -0.05800
C3080       C  0.47932780  0.07201106  0.14690256    -0.09300
C3081       C  0.47704139  0.06244481  0.12967888    -0.25900
S3082       S  0.42165265  0.05046998  0.08148940    -0.03100
C3083       C  0.40024328  0.05867746  0.09042885    -0.16500
C3084       C  0.40130955  0.06660020  0.10871007    -0.14500
H3085       H  0.41728665  0.08103340  0.14281651     0.20800
H3086       H  0.46117680  0.04856003  0.09626482     0.16900
H3087       H  0.48859922  0.05596418  0.12156668     0.19400
H3088       H  0.38923208  0.07243436  0.11652961     0.12700
C3089       C  0.44935050  0.84472601  0.15675065     0.16600
C3090       C  0.45845816  0.85395439  0.14142686    -0.32400
C3091       C  0.45282635  0.84888292  0.12281992     0.21000
C3092       C  0.43886315  0.83508896  0.11952345     0.03200
C3093       C  0.43009389  0.82545950  0.13487431    -0.22200
C3094       C  0.43561123  0.83068294  0.15353176     0.12400
S3095       S  0.45301038  0.85011914  0.18033730    -0.05800
C3096       C  0.43587296  0.83326038  0.18599871    -0.09300
C3097       C  0.42800473  0.82383689  0.17032555    -0.25900
S3098       S  0.43323919  0.83199323  0.09584328    -0.03100
C3099       C  0.44996639  0.84940965  0.09040567    -0.16500
C3100       C  0.45937570  0.85697932  0.10618777    -0.14500
H3101       H  0.46907786  0.86503312  0.14390684     0.20800
H3102       H  0.41906988  0.81478081  0.13240601     0.16900
H3103       H  0.41680236  0.81308928  0.17114714     0.19400
H3104       H  0.47010962  0.86820778  0.10556585     0.12700
C3105       C  0.46980093  0.89852854  0.95113960     0.16600
C3106       C  0.46762567  0.90207663  0.93143777    -0.32400
C3107       C  0.47480578  0.91948103  0.92422623     0.21000
C3108       C  0.48369897  0.93274457  0.93612302     0.03200
C3109       C  0.48645748  0.92890309  0.95562259    -0.22200
C3110       C  0.47931882  0.91154432  0.96280276     0.12400
S3111       S  0.46062798  0.87915523  0.96313386    -0.05800
C3112       C  0.47009721  0.88857191  0.98393919    -0.09300
C3113       C  0.47980654  0.90575582  0.98153669    -0.25900
S3114       S  0.49000628  0.95365707  0.92510518    -0.03100
C3115       C  0.48090751  0.94435588  0.90415141    -0.16500
C3116       C  0.47350917  0.92594874  0.90567319    -0.14500
H3117       H  0.46021115  0.89197370  0.92224712     0.20800
H3118       H  0.49341159  0.93924164  0.96491729     0.16900
H3119       H  0.48618131  0.91401061  0.99306392     0.19400
H3120       H  0.46708291  0.91799353  0.89397323     0.12700
C3121       C  0.42033025  0.94915480  0.04629863     0.16600
C3122       C  0.41718239  0.96898400  0.04587533    -0.32400
C3123       C  0.39862119  0.97557037  0.04984550     0.21000
C3124       C  0.38381009  0.96306030  0.05433511     0.03200
C3125       C  0.38686555  0.94313215  0.05429113    -0.22200
C3126       C  0.40543332  0.93649285  0.05005830     0.12400
S3127       S  0.44196880  0.93843856  0.04238363    -0.05800
C3128       C  0.43082797  0.91657406  0.04531945    -0.09300
C3129       C  0.41133938  0.91769585  0.04923328    -0.25900
S3130       S  0.36256798  0.97422920  0.05977793    -0.03100
C3131       C  0.37373442  0.99583934  0.05538567    -0.16500
C3132       C  0.39284542  0.99430685  0.05015258    -0.14500
H3133       H  0.42875082  0.97888320  0.04270135     0.20800
H3134       H  0.37532106  0.93324428  0.05753886     0.16900
H3135       H  0.40205955  0.90543551  0.05151091     0.19400
H3136       H  0.40214389  0.00638951  0.04705089     0.12700
C3137       C  0.69566664  0.12978842  0.58019903     0.16600
C3138       C  0.70478489  0.14588961  0.58802610    -0.32400
C3139       C  0.69880434  0.16401853  0.58170323     0.21000
C3140       C  0.68436632  0.16613562  0.56820027     0.03200
C3141       C  0.67549729  0.14999373  0.56006187    -0.22200
C3142       C  0.68150010  0.13182410  0.56639334     0.12400
S3143       S  0.70006818  0.10660350  0.58684972    -0.05800
C3144       C  0.68278089  0.09950159  0.57070470    -0.09300
C3145       C  0.67419840  0.11445933  0.56073714    -0.25900
S3146       S  0.67835164  0.18949027  0.56352244    -0.03100
C3147       C  0.69563466  0.19639350  0.57980658    -0.16500
C3148       C  0.70545303  0.18128922  0.58821923    -0.14500
H3149       H  0.71579215  0.14437188  0.59887649     0.20800
H3150       H  0.66415041  0.15152527  0.54957099     0.16900
H3151       H  0.66281587  0.11274960  0.55030484     0.19400
H3152       H  0.71643436  0.18284387  0.59909867     0.12700
C3153       C  0.73964342  0.03339990  0.51272410     0.16600
C3154       C  0.75257419  0.03392094  0.49726935    -0.32400
C3155       C  0.77229188  0.03422530  0.50150866     0.21000
C3156       C  0.77882910  0.03401219  0.52028683     0.03200
C3157       C  0.76592284  0.03308045  0.53569491    -0.22200
C3158       C  0.74623900  0.03280253  0.53147072     0.12400
S3159       S  0.71518879  0.03450709  0.51076852    -0.05800
C3160       C  0.71382888  0.03405748  0.53548411    -0.09300
C3161       C  0.73152374  0.03293384  0.54454886    -0.25900
S3162       S  0.80319065  0.03581400  0.52249893    -0.03100
C3163       C  0.80471646  0.03660987  0.49783871    -0.16500
C3164       C  0.78710153  0.03550669  0.48855074    -0.14500
H3165       H  0.74748817  0.03454480  0.48260715     0.20800
H3166       H  0.77099695  0.03306132  0.55037440     0.16900
H3167       H  0.73356917  0.03309158  0.55994672     0.19400
H3168       H  0.78518971  0.03625225  0.47315286     0.12700
C3169       C  0.37038754  0.10263097  0.70911348     0.16600
C3170       C  0.39029728  0.10525490  0.71036979    -0.32400
C3171       C  0.40201885  0.09317409  0.69935170     0.21000
C3172       C  0.39427149  0.07893642  0.68780650     0.03200
C3173       C  0.37437039  0.07636653  0.68648924    -0.22200
C3174       C  0.36264174  0.08862812  0.69728448     0.12400
S3175       S  0.35372163  0.11593200  0.72114981    -0.05800
C3176       C  0.33609820  0.10269149  0.70991300    -0.09300
C3177       C  0.34296464  0.08868841  0.69756674    -0.25900
S3178       S  0.41086342  0.06591439  0.67541157    -0.03100
C3179       C  0.42845134  0.08004961  0.68555094    -0.16500
C3180       C  0.42164887  0.09390427  0.69810258    -0.14500
H3181       H  0.39637436  0.11635846  0.71938376     0.20800
H3182       H  0.36828731  0.06542856  0.67727862     0.16900
H3183       H  0.33403588  0.07906298  0.68925231     0.19400
H3184       H  0.43055161  0.10416622  0.70564876     0.12700
C3185       C  0.49387310  0.02854086  0.78202766     0.16600
C3186       C  0.49473386  0.04421826  0.76947641    -0.32400
C3187       C  0.49523372  0.04034114  0.74973472     0.21000
C3188       C  0.49503099  0.02171427  0.74274832     0.03200
C3189       C  0.49465940  0.00603683  0.75531092    -0.22200
C3190       C  0.49400576  0.00991582  0.77503839     0.12400
S3191       S  0.49182447  0.03014616  0.80641853    -0.05800
C3192       C  0.49133755  0.00544207  0.80717657    -0.09300
C3193       C  0.49273069  0.99662079  0.78940876    -0.25900
S3194       S  0.49401470  0.02010674  0.71830569    -0.03100
C3195       C  0.49385045  0.04481103  0.71750351    -0.16500
C3196       C  0.49483609  0.05364025  0.73530590    -0.14500
H3197       H  0.49446250  0.05880072  0.77483091     0.20800
H3198       H  0.49431984  0.99146106  0.74993933     0.16900
H3199       H  0.49238880  0.98125797  0.78708864     0.19400
H3200       H  0.49434443  0.06899926  0.73761733     0.12700
C3201       C  0.57027301  0.06800640  0.64053011     0.16600
C3202       C  0.59015170  0.06534898  0.63823837    -0.32400
C3203       C  0.59720697  0.06308258  0.61943773     0.21000
C3204       C  0.58504264  0.06388328  0.60371548     0.03200
C3205       C  0.56530754  0.06638602  0.60600911    -0.22200
C3206       C  0.55824691  0.06817680  0.62468726     0.12400
S3207       S  0.55847242  0.07063278  0.66199100    -0.05800
C3208       C  0.53727261  0.07135586  0.64928195    -0.09300
C3209       C  0.53938370  0.06988067  0.62963519    -0.25900
S3210       S  0.59602702  0.06090689  0.58212535    -0.03100
C3211       C  0.61732900  0.05798651  0.59421203    -0.16500
C3212       C  0.61587168  0.05957443  0.61405145    -0.14500
H3213       H  0.59962705  0.06479632  0.65053081     0.20800
H3214       H  0.55579054  0.06662344  0.59373177     0.16900
H3215       H  0.52762175  0.06996588  0.61947696     0.19400
H3216       H  0.62774215  0.05807213  0.62395085     0.12700
C3217       C  0.32751928  0.88256971  0.43901769     0.16600
C3218       C  0.33755725  0.89871052  0.44560124    -0.32400
C3219       C  0.33096313  0.91683240  0.43984216     0.21000
C3220       C  0.31533030  0.91885559  0.42772608     0.03200
C3221       C  0.30528329  0.90268467  0.42113772    -0.22200
C3222       C  0.31164355  0.88455056  0.42720994     0.12400
S3223       S  0.33328097  0.85935166  0.44431862    -0.05800
C3224       C  0.31394118  0.85216059  0.43067965    -0.09300
C3225       C  0.30372064  0.86714575  0.42246775    -0.25900
S3226       S  0.30965580  0.94217960  0.42246084    -0.03100
C3227       C  0.32817193  0.94925132  0.43722467    -0.16500
C3228       C  0.33833867  0.93419474  0.44536235    -0.14500
H3229       H  0.34986848  0.89721920  0.45495425     0.20800
H3230       H  0.29294662  0.90417629  0.41182507     0.16900
H3231       H  0.29144585  0.86538408  0.41311379     0.19400
H3232       H  0.35042798  0.93588122  0.45497674     0.12700
C3233       C  0.25953970  0.01467794  0.48707398     0.16600
C3234       C  0.23958762  0.01491641  0.48979236    -0.32400
C3235       C  0.23268453  0.01409318  0.50869870     0.21000
C3236       C  0.24512410  0.01371812  0.52421445     0.03200
C3237       C  0.26505850  0.01364992  0.52150664    -0.22200
C3238       C  0.27194024  0.01381484  0.50259735     0.12400
S3239       S  0.27073225  0.01417150  0.46527151    -0.05800
C3240       C  0.29232552  0.01217842  0.47716504    -0.09300
C3241       C  0.29076503  0.01234082  0.49700932    -0.25900
S3242       S  0.23400767  0.01207547  0.54595515    -0.03100
C3243       C  0.21232711  0.01129126  0.53407121    -0.16500
C3244       C  0.21381212  0.01267004  0.51426130    -0.14500
H3245       H  0.22987181  0.01508419  0.47767900     0.20800
H3246       H  0.27476854  0.01284520  0.53360170     0.16900
H3247       H  0.30273088  0.01104281  0.50682471     0.19400
H3248       H  0.20178868  0.01216012  0.50444591     0.12700
C3249       C  0.42704416  0.21631248  0.40777852     0.16600
C3250       C  0.41887617  0.22587629  0.39206360    -0.32400
C3251       C  0.42485444  0.22040117  0.37361887     0.21000
C3252       C  0.43841915  0.20612298  0.37093340     0.03200
C3253       C  0.44686689  0.19685223  0.38664148    -0.22200
C3254       C  0.44082028  0.20224922  0.40505660     0.12400
S3255       S  0.42090717  0.21994534  0.43126325    -0.05800
C3256       C  0.43715384  0.20238726  0.43746213    -0.09300
C3257       C  0.44680797  0.19435873  0.42202649    -0.25900
S3258       S  0.44285347  0.20071042  0.34744850    -0.03100
C3259       C  0.42631855  0.21793292  0.34110716    -0.16500
C3260       C  0.41799778  0.22737741  0.35653966    -0.14500
H3261       H  0.40803006  0.23678691  0.39410199     0.20800
H3262       H  0.45737133  0.18561219  0.38458959     0.16900
H3263       H  0.45732108  0.18298712  0.42312414     0.19400
H3264       H  0.40706136  0.23832836  0.35533991     0.12700
C3265       C  0.47480222  0.12012126  0.59124414     0.16600
C3266       C  0.47842031  0.12663014  0.57263458    -0.32400
C3267       C  0.46673497  0.14125521  0.56540836     0.21000
C3268       C  0.45191226  0.14906854  0.57608718     0.03200
C3269       C  0.44846294  0.14276165  0.59494328    -0.22200
C3270       C  0.46034061  0.12817921  0.60228375     0.12400
S3271       S  0.48719944  0.10212741  0.60221649    -0.05800
C3272       C  0.47309821  0.10568656  0.62207821    -0.09300
C3273       C  0.45946835  0.12005780  0.62023461    -0.25900
S3274       S  0.43880858  0.16602038  0.56396691    -0.03100
C3275       C  0.45371214  0.16260733  0.54449045    -0.16500
C3276       C  0.46793363  0.14904867  0.54747773    -0.14500
H3277       H  0.48978566  0.12042229  0.56405726     0.20800
H3278       H  0.43696867  0.14882248  0.60344221     0.16900
H3279       H  0.44941216  0.12416515  0.63133216     0.19400
H3280       H  0.47834953  0.14465447  0.53682119     0.12700
C3281       C  0.40520141  0.10376802  0.47836044     0.16600
C3282       C  0.40200184  0.08399822  0.47777012    -0.32400
C3283       C  0.38443012  0.07758604  0.47052230     0.21000
C3284       C  0.37053156  0.09018180  0.46395841     0.03200
C3285       C  0.37349853  0.11013263  0.46511639    -0.22200
C3286       C  0.39116674  0.11659859  0.47252821     0.12400
S3287       S  0.42615395  0.11409820  0.48557291    -0.05800
C3288       C  0.41592113  0.13607486  0.48114671    -0.09300
C3289       C  0.39715928  0.13531005  0.47445014    -0.25900
S3290       S  0.35072528  0.07899583  0.45440253    -0.03100
C3291       C  0.36129216  0.05729491  0.45989206    -0.16500
C3292       C  0.37910594  0.05886627  0.46848816    -0.14500
H3293       H  0.41291743  0.07398864  0.48244111     0.20800
H3294       H  0.36270867  0.12013221  0.46015894     0.16900
H3295       H  0.38859963  0.14772690  0.47075463     0.19400
H3296       H  0.38796933  0.04680546  0.47265403     0.12700
C3297       C  0.61626930  0.96211817  0.33843734     0.16600
C3298       C  0.63615998  0.96308478  0.34107465    -0.32400
C3299       C  0.64778588  0.95303092  0.32812519     0.21000
C3300       C  0.64000132  0.94262204  0.31306437     0.03200
C3301       C  0.62006668  0.94148949  0.31053161    -0.22200
C3302       C  0.60841633  0.95135789  0.32365185     0.12400
S3303       S  0.59979105  0.97340887  0.35256461    -0.05800
C3304       C  0.58208099  0.96319329  0.33869695    -0.09300
C3305       C  0.58874429  0.95176353  0.32384642    -0.25900
S3306       S  0.65664323  0.93146159  0.29895239    -0.03100
C3307       C  0.67425193  0.94066167  0.31371525    -0.16500
C3308       C  0.66739514  0.95190358  0.32861253    -0.14500
H3309       H  0.64231009  0.97125618  0.35277231     0.20800
H3310       H  0.61390925  0.93318271  0.29893464     0.16900
H3311       H  0.57968308  0.94427860  0.31368151     0.19400
H3312       H  0.67627751  0.95868245  0.33941023     0.12700
C3313       C  0.52147663  0.00512525  0.26586614     0.16600
C3314       C  0.52292049  0.00691033  0.24586116    -0.32400
C3315       C  0.52198583  0.02544629  0.23803593     0.21000
C3316       C  0.51943871  0.04142505  0.24960990     0.03200
C3317       C  0.51805211  0.03964288  0.26957775    -0.22200
C3318       C  0.51929449  0.02117375  0.27741764     0.12400
S3319       S  0.52276896  0.98400855  0.27822318    -0.05800
C3320       C  0.52072372  0.99698721  0.29918650    -0.09300
C3321       C  0.51897376  0.01661481  0.29655431    -0.25900
S3322       S  0.51899528  0.06266988  0.23751776    -0.03100
C3323       C  0.52262873  0.05001391  0.21660150    -0.16500
C3324       C  0.52386187  0.03028643  0.21902453    -0.14500
H3325       H  0.52496096  0.99443931  0.23683180     0.20800
H3326       H  0.51638360  0.05215051  0.27863535     0.16900
H3327       H  0.51771973  0.02700501  0.30803266     0.19400
H3328       H  0.52639320  0.02009808  0.20757932     0.12700
C3329       C  0.43932807  0.98509896  0.37512865     0.16600
C3330       C  0.41989756  0.99017293  0.37705080    -0.32400
C3331       C  0.41221024  0.99091077  0.39571636     0.21000
C3332       C  0.42334667  0.98659126  0.41162581     0.03200
C3333       C  0.44261633  0.98153423  0.40970931    -0.22200
C3334       C  0.45030385  0.98100736  0.39120883     0.12400
S3335       S  0.45186975  0.98396578  0.35396597    -0.05800
C3336       C  0.47191974  0.97816914  0.36719599    -0.09300
C3337       C  0.46894053  0.97710682  0.38673598    -0.25900
S3338       S  0.41169293  0.98815611  0.43300266    -0.03100
C3339       C  0.39144241  0.99481825  0.42059715    -0.16500
C3340       C  0.39377509  0.99574011  0.40080652    -0.14500
H3341       H  0.41124061  0.99358254  0.36461705     0.20800
H3342       H  0.45133211  0.97833594  0.42216611     0.16900
H3343       H  0.48001691  0.97398611  0.39718249     0.19400
H3344       H  0.38259421  0.99956439  0.39073210     0.12700
C3345       C  0.56199942  0.84982969  0.62270949     0.16600
C3346       C  0.55898688  0.85118770  0.64249153    -0.32400
C3347       C  0.57175974  0.84151835  0.65453236     0.21000
C3348       C  0.58684340  0.83082475  0.64721027     0.03200
C3349       C  0.59008575  0.82973841  0.62734857    -0.22200
C3350       C  0.57728956  0.83952324  0.61525994     0.12400
S3351       S  0.54779526  0.86036730  0.60596595    -0.05800
C3352       C  0.56262812  0.85106797  0.58855455    -0.09300
C3353       C  0.57783180  0.84028259  0.59554368    -0.25900
S3354       S  0.60025906  0.81959082  0.66432270    -0.03100
C3355       C  0.58554833  0.82972808  0.68143931    -0.16500
C3356       C  0.57106675  0.84113004  0.67416165    -0.14500
H3357       H  0.54711487  0.85936658  0.64824824     0.20800
H3358       H  0.60194360  0.82154287  0.62159213     0.16900
H3359       H  0.58866362  0.83348677  0.58674302     0.19400
H3360       H  0.56048626  0.84855953  0.68275876     0.12700
C3361       C  0.54541361  0.89939377  0.44862532     0.16600
C3362       C  0.54560706  0.90236536  0.42872746    -0.32400
C3363       C  0.54010022  0.92048939  0.42187668     0.21000
C3364       C  0.53497914  0.93517500  0.43427082     0.03200
C3365       C  0.53445159  0.93211245  0.45416114    -0.22200
C3366       C  0.53959484  0.91385084  0.46097571     0.12400
S3367       S  0.55205934  0.87856478  0.45985489    -0.05800
C3368       C  0.54634108  0.88924244  0.48135531    -0.09300
C3369       C  0.53983949  0.90800274  0.47974993    -0.25900
S3370       S  0.52948178  0.95631933  0.42306632    -0.03100
C3371       C  0.53359319  0.94506461  0.40143672    -0.16500
C3372       C  0.53910448  0.92601896  0.40302164    -0.14500
H3373       H  0.54988072  0.89104378  0.41899862     0.20800
H3374       H  0.53021578  0.94344990  0.46389418     0.16900
H3375       H  0.53588482  0.91701504  0.49177106     0.19400
H3376       H  0.54236302  0.91675066  0.39099269     0.12700
C3377       C  0.59405102  0.94730220  0.54965803     0.16600
C3378       C  0.59784007  0.96700382  0.55015015    -0.32400
C3379       C  0.61645639  0.97286098  0.55493549     0.21000
C3380       C  0.63069078  0.95979630  0.55959172     0.03200
C3381       C  0.62695303  0.93996428  0.55888157    -0.22200
C3382       C  0.60836484  0.93406625  0.55356695     0.12400
S3383       S  0.57238193  0.93746629  0.54382851    -0.05800
C3384       C  0.58275582  0.91520090  0.54601915    -0.09300
C3385       C  0.60198256  0.91554072  0.55129069    -0.25900
S3386       S  0.65225879  0.97023630  0.56545031    -0.03100
C3387       C  0.64200043  0.99226129  0.56078520    -0.16500
C3388       C  0.62290528  0.99137089  0.55541282    -0.14500
H3389       H  0.58678955  0.97735313  0.54670091     0.20800
H3390       H  0.63806499  0.92961008  0.56209230     0.16900
H3391       H  0.61079517  0.90291324  0.55329302     0.19400
H3392       H  0.61413851  0.00374818  0.55204908     0.12700
C3393       C  0.32643561  0.37681229  0.57892885     0.16600
C3394       C  0.33576895  0.39222505  0.56999210    -0.32400
C3395       C  0.32991866  0.41083856  0.57495389     0.21000
C3396       C  0.31551908  0.41401860  0.58828819     0.03200
C3397       C  0.30603581  0.39860904  0.59704264    -0.22200
C3398       C  0.31181424  0.38001017  0.59201493     0.12400
S3399       S  0.33176738  0.35313513  0.57538000    -0.05800
C3400       C  0.31397104  0.34752079  0.59158072    -0.09300
C3401       C  0.30452445  0.36326488  0.59920597    -0.25900
S3402       S  0.31111378  0.43769167  0.59293958    -0.03100
C3403       C  0.32868788  0.44338294  0.57654176    -0.16500
C3404       C  0.33741683  0.42763660  0.56805444    -0.14500
H3405       H  0.34720116  0.38982739  0.55976329     0.20800
H3406       H  0.29477751  0.40100593  0.60746281     0.16900
H3407       H  0.29313521  0.36251442  0.60974064     0.19400
H3408       H  0.34894948  0.42843704  0.55768096     0.12700
C3409       C  0.61180951  0.45400366  0.69456925     0.16600
C3410       C  0.62723380  0.44437132  0.70279518    -0.32400
C3411       C  0.64563262  0.45020024  0.69751502     0.21000
C3412       C  0.64879799  0.46500737  0.68462423     0.03200
C3413       C  0.63324145  0.47499226  0.67659622    -0.22200
C3414       C  0.61467313  0.46906347  0.68186979     0.12400
S3415       S  0.58849789  0.44811070  0.69851191    -0.05800
C3416       C  0.58229462  0.46616497  0.68293549    -0.09300
C3417       C  0.59763239  0.47628167  0.67522362    -0.25900
S3418       S  0.67258812  0.46894703  0.67962833    -0.03100
C3419       C  0.67797452  0.45056006  0.69530073    -0.16500
C3420       C  0.66218236  0.44205025  0.70373732    -0.14500
H3421       H  0.62498965  0.43256514  0.71264607     0.20800
H3422       H  0.63547802  0.48655730  0.66647283     0.16900
H3423       H  0.59638618  0.48789611  0.66498564     0.19400
H3424       H  0.66275376  0.43016706  0.71373907     0.12700
C3425       C  0.44341485  0.49411166  0.64069572     0.16600
C3426       C  0.42777122  0.50389533  0.63282794    -0.32400
C3427       C  0.41510092  0.49334721  0.62134071     0.21000
C3428       C  0.41776900  0.47391079  0.61792833     0.03200
C3429       C  0.43288613  0.46395723  0.62654442    -0.22200
C3430       C  0.44563994  0.47452117  0.63791206     0.12400
S3431       S  0.46199833  0.50482156  0.65247575    -0.05800
C3432       C  0.47262959  0.48259966  0.65388304    -0.09300
C3433       C  0.46218954  0.46775262  0.64589585    -0.25900
S3434       S  0.40208671  0.46416553  0.60185611    -0.03100
C3435       C  0.39168608  0.48642227  0.60010220    -0.16500
C3436       C  0.39983480  0.50052811  0.61140271    -0.14500
H3437       H  0.42606259  0.51921176  0.63480233     0.20800
H3438       H  0.43512724  0.44883296  0.62378981     0.16900
H3439       H  0.46716601  0.45308429  0.64468563     0.19400
H3440       H  0.39523287  0.51536431  0.61176174     0.12700
C3441       C  0.57745716  0.33697782  0.40748509     0.16600
C3442       C  0.58587171  0.32789085  0.39175255    -0.32400
C3443       C  0.58009879  0.33385435  0.37348105     0.21000
C3444       C  0.56661171  0.34823338  0.37088027     0.03200
C3445       C  0.55795230  0.35710489  0.38662759    -0.22200
C3446       C  0.56369582  0.35110449  0.40491025     0.12400
S3447       S  0.58310035  0.33239627  0.43082967    -0.05800
C3448       C  0.56651581  0.34950591  0.43711664    -0.09300
C3449       C  0.55724065  0.35824836  0.42191147    -0.25900
S3450       S  0.56239396  0.35407126  0.34748469    -0.03100
C3451       C  0.57886412  0.33680602  0.34124304    -0.16500
C3452       C  0.58703568  0.32711739  0.35651594    -0.14500
H3453       H  0.59663787  0.31687217  0.39365402     0.20800
H3454       H  0.54743307  0.36835911  0.38472975     0.16900
H3455       H  0.54662055  0.36949765  0.42322954     0.19400
H3456       H  0.59788632  0.31607907  0.35528638     0.12700
C3457       C  0.48378012  0.26652970  0.50213669     0.16600
C3458       C  0.48594593  0.28653450  0.50252998    -0.32400
C3459       C  0.50452986  0.29399633  0.50059882     0.21000
C3460       C  0.52029947  0.28205257  0.49861235     0.03200
C3461       C  0.51810637  0.26204231  0.49796239    -0.22200
C3462       C  0.49947951  0.25458505  0.49967828     0.12400
S3463       S  0.46238778  0.25475523  0.50385806    -0.05800
C3464       C  0.47459183  0.23347877  0.50076041    -0.09300
C3465       C  0.49429413  0.23557806  0.49880733    -0.25900
S3466       S  0.54166778  0.29390490  0.49688861    -0.03100
C3467       C  0.52921545  0.31519727  0.49859490    -0.16500
C3468       C  0.50952804  0.31305544  0.50035660    -0.14500
H3469       H  0.47365739  0.29588075  0.50414727     0.20800
H3470       H  0.53036809  0.25270656  0.49609737     0.16900
H3471       H  0.50422818  0.22388235  0.49644571     0.19400
H3472       H  0.49943388  0.32480265  0.50143679     0.12700
C3473       C  0.54739200  0.39754064  0.57602145     0.16600
C3474       C  0.54737267  0.40123860  0.59580584    -0.32400
C3475       C  0.54196599  0.41971107  0.60180027     0.21000
C3476       C  0.53719477  0.43392094  0.58870541     0.03200
C3477       C  0.53691147  0.43013794  0.56906803    -0.22200
C3478       C  0.54189516  0.41165953  0.56312924     0.12400
S3479       S  0.55393115  0.37632353  0.56545843    -0.05800
C3480       C  0.54849910  0.38661448  0.54367050    -0.09300
C3481       C  0.54225649  0.40539010  0.54465231    -0.25900
S3482       S  0.53168823  0.45556418  0.59859022    -0.03100
C3483       C  0.53528273  0.44529811  0.62068140    -0.16500
C3484       C  0.54067345  0.42614549  0.62030652    -0.14500
H3485       H  0.55137866  0.39025973  0.60603693     0.20800
H3486       H  0.53294413  0.44113336  0.55883323     0.16900
H3487       H  0.53861003  0.41417082  0.53235513     0.19400
H3488       H  0.54358909  0.41748630  0.63287239     0.12700
C3489       C  0.69715313  0.62727011  0.44146578     0.16600
C3490       C  0.70632239  0.64308487  0.43324222    -0.32400
C3491       C  0.69971900  0.66132270  0.43838453     0.21000
C3492       C  0.68472269  0.66383380  0.45120030     0.03200
C3493       C  0.67587529  0.64799985  0.45983811    -0.22200
C3494       C  0.68243266  0.62971773  0.45461993     0.12400
S3495       S  0.70198771  0.60396189  0.43585145    -0.05800
C3496       C  0.68414429  0.59744151  0.45158722    -0.09300
C3497       C  0.67506729  0.61258958  0.46068008    -0.25900
S3498       S  0.67792168  0.68718092  0.45430228    -0.03100
C3499       C  0.69558062  0.69349407  0.43824036    -0.16500
C3500       C  0.70615290  0.67829030  0.43110909    -0.14500
H3501       H  0.71772684  0.64125384  0.42286332     0.20800
H3502       H  0.66406492  0.64981731  0.46975164     0.16900
H3503       H  0.66322871  0.61115556  0.47063339     0.19400
H3504       H  0.71751703  0.67952430  0.42058838     0.12700
C3505       C  0.59552862  0.44618470  0.47452618     0.16600
C3506       C  0.59899982  0.46590101  0.47344525    -0.32400
C3507       C  0.61747040  0.47182904  0.46829804     0.21000
C3508       C  0.63177064  0.45881706  0.46365493     0.03200
C3509       C  0.62830179  0.43900895  0.46478916    -0.22200
C3510       C  0.60995984  0.43304923  0.47067710     0.12400
S3511       S  0.57422162  0.43622373  0.48124410    -0.05800
C3512       C  0.58501079  0.41411250  0.47960221    -0.09300
C3513       C  0.60402433  0.41454174  0.47375902    -0.25900
S3514       S  0.65323090  0.46922332  0.45763220    -0.03100
C3515       C  0.64288737  0.49113501  0.46234638    -0.16500
C3516       C  0.62381905  0.49032616  0.46771812    -0.14500
H3517       H  0.58790473  0.47619327  0.47692756     0.20800
H3518       H  0.63950488  0.42872431  0.46167555     0.16900
H3519       H  0.61297440  0.40199584  0.47185759     0.19400
H3520       H  0.61507531  0.50270952  0.47112977     0.12700
C3521       C  0.39640189  0.57798772  0.33153720     0.16600
C3522       C  0.37666250  0.57452792  0.33148264    -0.32400
C3523       C  0.36505309  0.58725606  0.32125062     0.21000
C3524       C  0.37276280  0.60251316  0.31104308     0.03200
C3525       C  0.39260232  0.60596004  0.31102980    -0.22200
C3526       C  0.40420952  0.59343614  0.32169765     0.12400
S3527       S  0.41255962  0.56468002  0.34401399    -0.05800
C3528       C  0.43012739  0.58020064  0.33624984    -0.09300
C3529       C  0.42367769  0.59480490  0.32435485    -0.25900
S3530       S  0.35603939  0.61658828  0.30002907    -0.03100
C3531       C  0.33857413  0.60205264  0.30982876    -0.16500
C3532       C  0.34545386  0.58696035  0.32067193    -0.14500
H3533       H  0.37056009  0.56270145  0.33951162     0.20800
H3534       H  0.39864952  0.61810772  0.30345290     0.16900
H3535       H  0.43264842  0.60595319  0.31828936     0.19400
H3536       H  0.33656776  0.57663646  0.32815864     0.12700
C3537       C  0.56980679  0.56619860  0.38541782     0.16600
C3538       C  0.58978643  0.56571732  0.38771398    -0.32400
C3539       C  0.59694439  0.56171528  0.40610887     0.21000
C3540       C  0.58475211  0.55877311  0.42156342     0.03200
C3541       C  0.56486435  0.55894373  0.41921289    -0.22200
C3542       C  0.55774776  0.56248598  0.40080450     0.12400
S3543       S  0.55807637  0.57112866  0.36442801    -0.05800
C3544       C  0.53687213  0.56754690  0.37653848    -0.09300
C3545       C  0.53886879  0.56293453  0.39571593    -0.25900
S3546       S  0.59603830  0.55447233  0.44276262    -0.03100
C3547       C  0.61746385  0.55595178  0.43063767    -0.16500
C3548       C  0.61584807  0.55993036  0.41122064    -0.14500
H3549       H  0.59930793  0.56824791  0.37570711     0.20800
H3550       H  0.55533993  0.55630289  0.43120056     0.16900
H3551       H  0.52706020  0.56043950  0.40550801     0.19400
H3552       H  0.62780869  0.56126706  0.40140315     0.12700
C3553       C  0.44094031  0.69452656  0.62306905     0.16600
C3554       C  0.44291232  0.69125389  0.64275031    -0.32400
C3555       C  0.43414262  0.70422080  0.65525335     0.21000
C3556       C  0.42408067  0.71999128  0.64850275     0.03200
C3557       C  0.42202291  0.72325640  0.62871409    -0.22200
C3558       C  0.43053432  0.71000756  0.61614390     0.12400
S3559       S  0.45056282  0.68025792  0.60583395    -0.05800
C3560       C  0.44018899  0.69495114  0.58894063    -0.09300
C3561       C  0.42986043  0.71023379  0.59641222    -0.25900
S3562       S  0.41428750  0.73380120  0.66618886    -0.03100
C3563       C  0.42353584  0.71786204  0.68273630    -0.16500
C3564       C  0.43387316  0.70290535  0.67483731    -0.14500
H3565       H  0.45078540  0.67898132  0.64808932     0.20800
H3566       H  0.41395002  0.73539639  0.62337868     0.16900
H3567       H  0.42254886  0.72098287  0.58792258     0.19400
H3568       H  0.44046488  0.69142359  0.68295641     0.12700
C3569       C  0.48178935  0.76667691  0.52587200     0.16600
C3570       C  0.48344672  0.78673416  0.52700934    -0.32400
C3571       C  0.50179181  0.79482098  0.52496573     0.21000
C3572       C  0.51773061  0.78343175  0.52161386     0.03200
C3573       C  0.51608943  0.76336019  0.52055568    -0.22200
C3574       C  0.49779316  0.75525412  0.52295369     0.12400
S3575       S  0.46087703  0.75413377  0.52840994    -0.05800
C3576       C  0.47382693  0.73320669  0.52594292    -0.09300
C3577       C  0.49334387  0.73600877  0.52314579    -0.25900
S3578       S  0.53874259  0.79595025  0.51989110    -0.03100
C3579       C  0.52605297  0.81679005  0.52412715    -0.16500
C3580       C  0.50646776  0.81396248  0.52645783    -0.14500
H3581       H  0.47100587  0.79563178  0.52965790     0.20800
H3582       H  0.52858447  0.75443396  0.51828120     0.16900
H3583       H  0.50372129  0.72458558  0.52145964     0.19400
H3584       H  0.49625667  0.82524044  0.52954417     0.12700
C3585       C  0.45692275  0.65144031  0.44721043     0.16600
C3586       C  0.45601442  0.64730280  0.42745029    -0.32400
C3587       C  0.46450052  0.63009576  0.42103626     0.21000
C3588       C  0.47325823  0.61757143  0.43377883     0.03200
C3589       C  0.47463554  0.62195793  0.45327193    -0.22200
C3590       C  0.46637917  0.63910676  0.45959384     0.12400
S3591       S  0.44675036  0.67091127  0.45846890    -0.05800
C3592       C  0.45592327  0.66240232  0.47983573    -0.09300
C3593       C  0.46606127  0.64541500  0.47809932    -0.25900
S3594       S  0.48158723  0.59690500  0.42373971    -0.03100
C3595       C  0.47368544  0.60524538  0.40194007    -0.16500
C3596       C  0.46503445  0.62320055  0.40253067    -0.14500
H3597       H  0.44880623  0.65688800  0.41758732     0.20800
H3598       H  0.48162339  0.61224550  0.46318295     0.16900
H3599       H  0.47251279  0.63773538  0.48997289     0.19400
H3600       H  0.45914811  0.63056904  0.39019216     0.12700
C3601       C  0.41243409  0.59829270  0.54333622     0.16600
C3602       C  0.40987236  0.57835286  0.54273229    -0.32400
C3603       C  0.39230448  0.57095493  0.54917648     0.21000
C3604       C  0.37799060  0.58281393  0.55621572     0.03200
C3605       C  0.38040406  0.60282067  0.55644659    -0.22200
C3606       C  0.39789389  0.61026150  0.54971376     0.12400
S3607       S  0.43291577  0.60997821  0.53666524    -0.05800
C3608       C  0.42166434  0.63128736  0.54204946    -0.09300
C3609       C  0.40301674  0.62928168  0.54872879    -0.25900
S3610       S  0.35812918  0.57083061  0.56431161    -0.03100
C3611       C  0.36903113  0.54970192  0.55758723    -0.16500
C3612       C  0.38715295  0.55198502  0.54971012    -0.14500
H3613       H  0.42112846  0.56899776  0.53755938     0.20800
H3614       H  0.36919541  0.61216271  0.56173840     0.16900
H3615       H  0.39383366  0.64108505  0.55290092     0.19400
H3616       H  0.39624237  0.54031838  0.54497412     0.12700
C3617       C  0.69781987  0.41814672  0.09008680     0.16600
C3618       C  0.70662493  0.40246275  0.09897089    -0.32400
C3619       C  0.70041997  0.38407786  0.09369006     0.21000
C3620       C  0.68604939  0.38133277  0.08021382     0.03200
C3621       C  0.67744116  0.39702376  0.07109212    -0.22200
C3622       C  0.68370672  0.41542359  0.07633258     0.12400
S3623       S  0.70271943  0.44163049  0.09511888    -0.05800
C3624       C  0.68576757  0.44782587  0.07829637    -0.09300
C3625       C  0.67686894  0.43242698  0.06938117    -0.25900
S3626       S  0.68007662  0.35783356  0.07646083    -0.03100
C3627       C  0.69730098  0.35170089  0.09307952    -0.16500
C3628       C  0.70701613  0.36713911  0.10099630    -0.14500
H3629       H  0.71766366  0.40449727  0.10970921     0.20800
H3630       H  0.66621261  0.39499973  0.06054891     0.16900
H3631       H  0.66565090  0.43362366  0.05870060     0.19400
H3632       H  0.71812963  0.36604359  0.11179411     0.12700
C3633       C  0.58257616  0.70815322  0.11741726     0.16600
C3634       C  0.59237058  0.71572972  0.13324241    -0.32400
C3635       C  0.58504588  0.71162810  0.15152449     0.21000
C3636       C  0.56869985  0.70052304  0.15395503     0.03200
C3637       C  0.55870034  0.69331029  0.13814365    -0.22200
C3638       C  0.56606301  0.69732736  0.11990816     0.12400
S3639       S  0.58967958  0.71045986  0.09408239    -0.05800
C3640       C  0.57015154  0.69671346  0.08771445    -0.09300
C3641       C  0.55880226  0.69085838  0.10292296    -0.25900
S3642       S  0.56283775  0.69604901  0.17726738    -0.03100
C3643       C  0.58250099  0.70944790  0.18383286    -0.16500
C3644       C  0.59290721  0.71701462  0.16868148    -0.14500
H3645       H  0.60534615  0.72408742  0.13141407     0.20800
H3646       H  0.54599079  0.68455234  0.13998643     0.16900
H3647       H  0.54612659  0.68194647  0.10166499     0.19400
H3648       H  0.60587762  0.72545337  0.17015153     0.12700
C3649       C  0.50642409  0.75451971  0.02634902     0.16600
C3650       C  0.49077545  0.76712654  0.02681139    -0.32400
C3651       C  0.49464042  0.78688681  0.02642159     0.21000
C3652       C  0.51325772  0.79384405  0.02566012     0.03200
C3653       C  0.52891216  0.78122166  0.02482599    -0.22200
C3654       C  0.52503606  0.76143453  0.02518444     0.12400
S3655       S  0.50478684  0.73009013  0.02783874    -0.05800
C3656       C  0.52945018  0.72909455  0.02664890    -0.09300
C3657       C  0.53830589  0.74689732  0.02516084    -0.25900
S3658       S  0.51489203  0.81832681  0.02663799    -0.03100
C3659       C  0.49020960  0.81918087  0.02787216    -0.16500
C3660       C  0.48136515  0.80134810  0.02745081    -0.14500
H3661       H  0.47622952  0.76177176  0.02781266     0.20800
H3662       H  0.54348134  0.78658145  0.02430968     0.16900
H3663       H  0.55367019  0.74911741  0.02469790     0.19400
H3664       H  0.46604138  0.79905681  0.02853113     0.12700
C3665       C  0.60057195  0.59936610  0.04470619     0.16600
C3666       C  0.60411445  0.57961718  0.04546304    -0.32400
C3667       C  0.62268119  0.57364000  0.05028201     0.21000
C3668       C  0.63713889  0.58667037  0.05443613     0.03200
C3669       C  0.63372291  0.60649972  0.05314264    -0.22200
C3670       C  0.61513537  0.61250901  0.04809780     0.12400
S3671       S  0.57875239  0.60941095  0.03998368    -0.05800
C3672       C  0.58937032  0.63162213  0.04211478    -0.09300
C3673       C  0.60883173  0.63109878  0.04631336    -0.25900
S3674       S  0.65835613  0.57623016  0.06127792    -0.03100
C3675       C  0.64765671  0.55419260  0.05789360    -0.16500
C3676       C  0.62872877  0.55506600  0.05194604    -0.14500
H3677       H  0.59280393  0.56932211  0.04264478     0.20800
H3678       H  0.64497313  0.61678943  0.05617349     0.16900
H3679       H  0.61778067  0.64365163  0.04831131     0.19400
H3680       H  0.61970775  0.54265273  0.04938564     0.12700
C3681       C  0.39676089  0.46710868  0.18579212     0.16600
C3682       C  0.37680899  0.46892832  0.18427676    -0.32400
C3683       C  0.36544992  0.45713310  0.19596273     0.21000
C3684       C  0.37357529  0.44424631  0.20875041     0.03200
C3685       C  0.39353142  0.44230804  0.21014749    -0.22200
C3686       C  0.40488884  0.45395490  0.19830556     0.12400
S3687       S  0.41299309  0.47998466  0.17275174    -0.05800
C3688       C  0.43093212  0.46727373  0.18402426    -0.09300
C3689       C  0.42451610  0.45390096  0.19727370    -0.25900
S3690       S  0.35731138  0.43128865  0.22168859    -0.03100
C3691       C  0.33935685  0.44312629  0.20950557    -0.16500
C3692       C  0.34580938  0.45648461  0.19625628    -0.14500
H3693       H  0.37041919  0.47900350  0.17433552     0.20800
H3694       H  0.39991972  0.43208103  0.21993373     0.16900
H3695       H  0.43371092  0.44457201  0.20561431     0.19400
H3696       H  0.33662430  0.46512666  0.18719658     0.12700
C3697       C  0.49756657  0.51868623  0.28286479     0.16600
C3698       C  0.49705398  0.50294031  0.27031353    -0.32400
C3699       C  0.49807617  0.50668858  0.25053021     0.21000
C3700       C  0.49982343  0.52524591  0.24356803     0.03200
C3701       C  0.50094538  0.54090514  0.25612631    -0.22200
C3702       C  0.49960829  0.53719164  0.27585554     0.12400
S3703       S  0.49433408  0.51747860  0.30717962    -0.05800
C3704       C  0.49562550  0.54218815  0.30784330    -0.09300
C3705       C  0.49878470  0.55067452  0.29012244    -0.25900
S3706       S  0.49907337  0.52697053  0.21912534    -0.03100
C3707       C  0.49644639  0.50239966  0.21819294    -0.16500
C3708       C  0.49639199  0.49348513  0.23601275    -0.14500
H3709       H  0.49515874  0.48848252  0.27568295     0.20800
H3710       H  0.50201243  0.55543550  0.25072274     0.16900
H3711       H  0.49949454  0.56600281  0.28766016     0.19400
H3712       H  0.49439363  0.47823721  0.23825248     0.12700
C3713       C  0.57237820  0.47710229  0.13868886     0.16600
C3714       C  0.59220013  0.47540494  0.13546451    -0.32400
C3715       C  0.59944781  0.48241135  0.11797403     0.21000
C3716       C  0.58741726  0.49013459  0.10413149     0.03200
C3717       C  0.56777543  0.49202491  0.10744873    -0.22200
C3718       C  0.56066741  0.48562890  0.12507210     0.12400
S3719       S  0.56040219  0.46953297  0.15881402    -0.05800
C3720       C  0.53969082  0.47867796  0.14887496    -0.09300
C3721       C  0.54206087  0.48679558  0.13093220    -0.25900
S3722       S  0.59864848  0.49752363  0.08373723    -0.03100
C3723       C  0.61994250  0.49094353  0.09418356    -0.16500
C3724       C  0.61831304  0.48304747  0.11238509    -0.14500
H3725       H  0.60155284  0.46913779  0.14615479     0.20800
H3726       H  0.55844370  0.49844146  0.09682122     0.16900
H3727       H  0.53060286  0.49288886  0.12239271     0.19400
H3728       H  0.63025683  0.47817300  0.12102601     0.12700
C3729       C  0.43731630  0.33399569  0.90450605     0.16600
C3730       C  0.42895573  0.32378305  0.88936020    -0.32400
C3731       C  0.43445379  0.32871724  0.87066633     0.21000
C3732       C  0.44769298  0.34317254  0.86717461     0.03200
C3733       C  0.45633872  0.35312476  0.88233656    -0.22200
C3734       C  0.45083100  0.34819873  0.90103524     0.12400
S3735       S  0.43179790  0.33088777  0.92814409    -0.05800
C3736       C  0.44805865  0.34873315  0.93343454    -0.09300
C3737       C  0.45718816  0.35659364  0.91761687    -0.25900
S3738       S  0.45140026  0.34793608  0.84345802    -0.03100
C3739       C  0.43501402  0.33019902  0.83819939    -0.16500
C3740       C  0.42730257  0.32104620  0.85407153    -0.14500
H3741       H  0.41833030  0.31274464  0.89201270     0.20800
H3742       H  0.46660941  0.36448779  0.87966411     0.16900
H3743       H  0.46760313  0.36812345  0.91819361     0.19400
H3744       H  0.41645762  0.30991659  0.85351227     0.12700
C3745       C  0.49300061  0.28417749  0.00010691     0.16600
C3746       C  0.49484471  0.26419788  0.00195409    -0.32400
C3747       C  0.51308680  0.25619803  0.99904510     0.21000
C3748       C  0.52882546  0.26765959  0.99491295     0.03200
C3749       C  0.52696219  0.28758567  0.99299625    -0.22200
C3750       C  0.50868999  0.29553239  0.99554799     0.12400
S3751       S  0.47202521  0.29659653  0.00234811    -0.05800
C3752       C  0.48447920  0.31729017  0.99687487    -0.09300
C3753       C  0.50389355  0.31452304  0.99359711    -0.25900
S3754       S  0.54967610  0.25534591  0.99170427    -0.03100
C3755       C  0.53704139  0.23441739  0.99536361    -0.16500
C3756       C  0.51769066  0.23701808  0.99921053    -0.14500
H3757       H  0.48254748  0.25526437  0.00516424     0.20800
H3758       H  0.53917865  0.29647405  0.98937454     0.16900
H3759       H  0.51389996  0.32573872  0.98964943     0.19400
H3760       H  0.50752770  0.22552180  0.00166610     0.12700
C3761       C  0.47330096  0.43556837  0.08704622     0.16600
C3762       C  0.47331851  0.43266780  0.06716614    -0.32400
C3763       C  0.46930530  0.41415668  0.06039444     0.21000
C3764       C  0.46488288  0.39923665  0.07279630     0.03200
C3765       C  0.46508444  0.40209221  0.09276011    -0.22200
C3766       C  0.46962978  0.42054658  0.09957537     0.12400
S3767       S  0.47809629  0.45694782  0.09798243    -0.05800
C3768       C  0.47573111  0.44551560  0.11975473    -0.09300
C3769       C  0.47120907  0.42613996  0.11843344    -0.25900
S3770       S  0.45959384  0.37804096  0.06146685    -0.03100
C3771       C  0.46415007  0.38930640  0.03993117    -0.16500
C3772       C  0.46914738  0.40847852  0.04158530    -0.14500
H3773       H  0.47650877  0.44431901  0.05738404     0.20800
H3774       H  0.46197894  0.39042438  0.10254256     0.16900
H3775       H  0.46919636  0.41668541  0.13059832     0.19400
H3776       H  0.47214324  0.41787571  0.02956900     0.12700
C3777       C  0.33325564  0.63518828  0.95992148     0.16600
C3778       C  0.33679469  0.65485201  0.96204374    -0.32400
C3779       C  0.32599906  0.66749961  0.95078521     0.21000
C3780       C  0.31181198  0.66092286  0.93847658     0.03200
C3781       C  0.30815452  0.64124332  0.93648070    -0.22200
C3782       C  0.31943974  0.62854249  0.94722570     0.12400
S3783       S  0.34598429  0.61757710  0.97104568    -0.05800
C3784       C  0.33306971  0.60105107  0.95795009    -0.09300
C3785       C  0.31926715  0.60889684  0.94601251    -0.25900
S3786       S  0.30057651  0.67856961  0.92578922    -0.03100
C3787       C  0.31553724  0.69490582  0.93677513    -0.16500
C3788       C  0.32826502  0.68699620  0.94981260    -0.14500
H3789       H  0.34794487  0.66002666  0.97155000     0.20800
H3790       H  0.29744856  0.63604104  0.92649577     0.16900
H3791       H  0.31007993  0.60072564  0.93651115     0.19400
H3792       H  0.33873562  0.69505668  0.95799492     0.12700
C3793       C  0.38319219  0.46101612  0.95820812     0.16600
C3794       C  0.38653807  0.44116854  0.95891884    -0.32400
C3795       C  0.40458352  0.43497422  0.96542810     0.21000
C3796       C  0.41887874  0.44795063  0.97031685     0.03200
C3797       C  0.41554831  0.46769340  0.96962372    -0.22200
C3798       C  0.39736135  0.47382905  0.96379522     0.12400
S3799       S  0.36189660  0.47167694  0.95200651    -0.05800
C3800       C  0.37209513  0.49338297  0.95793916    -0.09300
C3801       C  0.39105749  0.49232371  0.96370125    -0.25900
S3802       S  0.43981687  0.43774932  0.97770610    -0.03100
C3803       C  0.42907249  0.41573015  0.97479001    -0.16500
C3804       C  0.41032161  0.41636416  0.96819379    -0.14500
H3805       H  0.37541595  0.43100835  0.95508508     0.20800
H3806       H  0.42650843  0.47784632  0.97394894     0.16900
H3807       H  0.39966285  0.50451888  0.96810093     0.19400
H3808       H  0.40143320  0.40389204  0.96552445     0.12700
C3809       C  0.61554778  0.58957269  0.82586532     0.16600
C3810       C  0.63091847  0.59798638  0.81596634    -0.32400
C3811       C  0.64950238  0.59416913  0.82272257     0.21000
C3812       C  0.65259911  0.58254004  0.83857004     0.03200
C3813       C  0.63732093  0.57388143  0.84817929    -0.22200
C3814       C  0.61883564  0.57765139  0.84144799     0.12400
S3815       S  0.59180852  0.59315388  0.82085699    -0.05800
C3816       C  0.58649186  0.57823590  0.83984468    -0.09300
C3817       C  0.60226882  0.57093494  0.84934621    -0.25900
S3818       S  0.67597554  0.58032464  0.84519579    -0.03100
C3819       C  0.68180519  0.59504766  0.82628964    -0.16500
C3820       C  0.66631515  0.60131076  0.81547742    -0.14500
H3821       H  0.62849971  0.60732184  0.80379351     0.20800
H3822       H  0.63971814  0.56483372  0.86057415     0.16900
H3823       H  0.60163594  0.56163333  0.86177781     0.19400
H3824       H  0.66728030  0.61083405  0.80324097     0.12700
C3825       C  0.52040592  0.52511935  0.74466960     0.16600
C3826       C  0.52010478  0.54014707  0.75795822    -0.32400
C3827       C  0.52151543  0.53530638  0.77741510     0.21000
C3828       C  0.52328187  0.51641741  0.78342618     0.03200
C3829       C  0.52326618  0.50139491  0.77017022    -0.22200
C3830       C  0.52172350  0.50621498  0.75074966     0.12400
S3831       S  0.51988388  0.52791052  0.72034207    -0.05800
C3832       C  0.52117078  0.50332082  0.71849472    -0.09300
C3833       C  0.52194305  0.49364584  0.73579498    -0.25900
S3834       S  0.52595120  0.51363242  0.80758621    -0.03100
C3835       C  0.52434925  0.53817030  0.80960474    -0.16500
C3836       C  0.52194041  0.54785220  0.79242074    -0.14500
H3837       H  0.51911031  0.55494936  0.75334190     0.20800
H3838       H  0.52468011  0.48661886  0.77476020     0.16900
H3839       H  0.52323882  0.47823502  0.73733088     0.19400
H3840       H  0.52112447  0.56330071  0.79093736     0.12700
C3841       C  0.42025486  0.56405577  0.90523465     0.16600
C3842       C  0.43216441  0.56920852  0.88986144    -0.32400
C3843       C  0.45096448  0.56206291  0.88987274     0.21000
C3844       C  0.45743407  0.54999466  0.90431279     0.03200
C3845       C  0.44566279  0.54511840  0.91980089    -0.22200
C3846       C  0.42707043  0.55262353  0.92002759     0.12400
S3847       S  0.39672645  0.57043766  0.90755283    -0.05800
C3848       C  0.39641287  0.55812495  0.92896762    -0.09300
C3849       C  0.41354098  0.54945029  0.93385465    -0.25900
S3850       S  0.48055937  0.54268626  0.90177245    -0.03100
C3851       C  0.48184646  0.55659114  0.88139922    -0.16500
C3852       C  0.46501483  0.56603630  0.87668790    -0.14500
H3853       H  0.42702447  0.57838686  0.87843630     0.20800
H3854       H  0.45081007  0.53595186  0.93123673     0.16900
H3855       H  0.41568195  0.54054442  0.94640952     0.19400
H3856       H  0.46331075  0.57562762  0.86458829     0.12700
C3857       C  0.54198225  0.60919834  0.93790801     0.16600
C3858       C  0.53894572  0.61426996  0.95704039    -0.32400
C3859       C  0.54422793  0.63280229  0.96266006     0.21000
C3860       C  0.55264710  0.64565471  0.95001582     0.03200
C3861       C  0.55535242  0.64070384  0.93072069    -0.22200
C3862       C  0.54961573  0.62226974  0.92496908     0.12400
S3863       S  0.53624515  0.58745278  0.92830041    -0.05800
C3864       C  0.54347519  0.59631439  0.90647897    -0.09300
C3865       C  0.55030155  0.61497726  0.90676657    -0.25900
S3866       S  0.55947764  0.66689235  0.96029610    -0.03100
C3867       C  0.55033662  0.65842079  0.98162289    -0.16500
C3868       C  0.54253993  0.64018345  0.98066960    -0.14500
H3869       H  0.53270099  0.60421723  0.96711518     0.20800
H3870       H  0.56163956  0.65073788  0.92065945     0.16900
H3871       H  0.55519131  0.62283355  0.89428277     0.19400
H3872       H  0.53680737  0.63233298  0.99280135     0.12700
C3873       C  0.05894123  0.69570910  0.40143187     0.16600
C3874       C  0.05690986  0.69482352  0.38145560    -0.32400
C3875       C  0.07031323  0.70483142  0.37028855     0.21000
C3876       C  0.08481932  0.71560334  0.37865325     0.03200
C3877       C  0.08685100  0.71648461  0.39860635    -0.22200
C3878       C  0.07369766  0.70616369  0.40974611     0.12400
S3879       S  0.04477458  0.68380531  0.41745234    -0.05800
C3880       C  0.05916150  0.69266636  0.43549592    -0.09300
C3881       C  0.07389752  0.70447689  0.42929832    -0.25900
S3882       S  0.09959952  0.72675107  0.36269941    -0.03100
C3883       C  0.08636775  0.71646709  0.34454212    -0.16500
C3884       C  0.07121789  0.70515040  0.35065113    -0.14500
H3885       H  0.04560590  0.68640818  0.37490256     0.20800
H3886       H  0.09838137  0.72459655  0.40515249     0.16900
H3887       H  0.08448802  0.71108117  0.43855971     0.19400
H3888       H  0.06141722  0.69760248  0.34124555     0.12700
C3889       C  0.98163076  0.77416421  0.50492406     0.16600
C3890       C  0.98314301  0.75404092  0.50498636    -0.32400
C3891       C  0.00162505  0.74604075  0.50422637     0.21000
C3892       C  0.01781145  0.75761260  0.50388920     0.03200
C3893       C  0.01629209  0.77765890  0.50381239    -0.22200
C3894       C  0.99786389  0.78563801  0.50414554     0.12400
S3895       S  0.96059600  0.78673499  0.50476669    -0.05800
C3896       C  0.97382239  0.80765654  0.50327893    -0.09300
C3897       C  0.99349770  0.80482090  0.50313346    -0.25900
S3898       S  0.03890102  0.74539163  0.50254086    -0.03100
C3899       C  0.02590776  0.72436000  0.50184208    -0.16500
C3900       C  0.00617580  0.72685283  0.50298869    -0.14500
H3901       H  0.97048115  0.74504394  0.50515854     0.20800
H3902       H  0.02893976  0.78665079  0.50308566     0.16900
H3903       H  0.00405083  0.81615587  0.50186255     0.19400
H3904       H  0.99575735  0.71533794  0.50245702     0.12700
C3905       C  0.12124370  0.57032649  0.68146521     0.16600
C3906       C  0.14093659  0.56954292  0.67770157    -0.32400
C3907       C  0.15288545  0.58171777  0.68830108     0.21000
C3908       C  0.14559722  0.59401682  0.70213721     0.03200
C3909       C  0.12587939  0.59497821  0.70572409    -0.22200
C3910       C  0.11390886  0.58290468  0.69502137     0.12400
S3911       S  0.10435563  0.55698612  0.66989902    -0.05800
C3912       C  0.08718949  0.56878179  0.68317596    -0.09300
C3913       C  0.09432601  0.58214823  0.69601237    -0.25900
S3914       S  0.16249804  0.60731757  0.71374012    -0.03100
C3915       C  0.17952080  0.59632837  0.69963431    -0.16500
C3916       C  0.17237510  0.58310672  0.68666980    -0.14500
H3917       H  0.14667808  0.55993382  0.66693977     0.20800
H3918       H  0.12012103  0.60474562  0.71633180     0.16900
H3919       H  0.08563603  0.59116286  0.70519203     0.19400
H3920       H  0.18098014  0.57488052  0.67670075     0.12700
C3921       C  0.04992753  0.64185760  0.57482759     0.16600
C3922       C  0.04939166  0.63848466  0.59464239    -0.32400
C3923       C  0.04886554  0.61931163  0.60080738     0.21000
C3924       C  0.04923084  0.60417697  0.58789135     0.03200
C3925       C  0.04969013  0.60754329  0.56814752    -0.22200
C3926       C  0.04978472  0.62664895  0.56198444     0.12400
S3927       S  0.05056732  0.66401195  0.56421018    -0.05800
C3928       C  0.05013193  0.65247304  0.54240319    -0.09300
C3929       C  0.04966417  0.63268638  0.54338384    -0.25900
S3930       S  0.04789195  0.58198959  0.59811810    -0.03100
C3931       C  0.04621991  0.59319241  0.62002341    -0.16500
C3932       C  0.04717962  0.61306574  0.61932657    -0.14500
H3933       H  0.04910310  0.65025465  0.60478213     0.20800
H3934       H  0.04961221  0.59577145  0.55800026     0.16900
H3935       H  0.04955075  0.62321754  0.53105263     0.19400
H3936       H  0.04598521  0.62245753  0.63164653     0.12700
C3937       C  0.19186532  0.41362632  0.43771979     0.16600
C3938       C  0.20157466  0.39788939  0.42982951    -0.32400
C3939       C  0.19632503  0.37951777  0.43619255     0.21000
C3940       C  0.18192099  0.37689546  0.44965621     0.03200
C3941       C  0.17228810  0.39262216  0.45761274    -0.22200
C3942       C  0.17766109  0.41099063  0.45138589     0.12400
S3943       S  0.19610453  0.43709561  0.43197124    -0.05800
C3944       C  0.17877930  0.44343683  0.44839862    -0.09300
C3945       C  0.17013247  0.42803285  0.45759216    -0.25900
S3946       S  0.17710144  0.35345241  0.45487979    -0.03100
C3947       C  0.19476070  0.34708656  0.43883632    -0.16500
C3948       C  0.20388393  0.36244697  0.43005765    -0.14500
H3949       H  0.21270343  0.39987273  0.41918054     0.20800
H3950       H  0.16105933  0.39062791  0.46815558     0.16900
H3951       H  0.15893170  0.42923909  0.46828313     0.19400
H3952       H  0.21500555  0.36117406  0.41929265     0.12700
C3953       C  0.23643093  0.50644127  0.51545018     0.16600
C3954       C  0.24849813  0.50701987  0.53149465    -0.32400
C3955       C  0.26832517  0.50783843  0.52821756     0.21000
C3956       C  0.27588680  0.50819362  0.50982785     0.03200
C3957       C  0.26378759  0.50819389  0.49378242    -0.22200
C3958       C  0.24395146  0.50722152  0.49705583     0.12400
S3959       S  0.21204834  0.50395593  0.51630663    -0.05800
C3960       C  0.21197411  0.50420697  0.49160063    -0.09300
C3961       C  0.22996637  0.50614459  0.48333091    -0.25900
S3962       S  0.30039622  0.50734124  0.50897384    -0.03100
C3963       C  0.30038495  0.50658233  0.53366287    -0.16500
C3964       C  0.28231313  0.50723345  0.54192782    -0.14500
H3965       H  0.24272538  0.50626516  0.54589543     0.20800
H3966       H  0.26958709  0.50832732  0.47937508     0.16900
H3967       H  0.23271608  0.50629150  0.46804232     0.19400
H3968       H  0.27951564  0.50637212  0.55718695     0.12700
C3969       C  0.09532890  0.59530575  0.47860939     0.16600
C3970       C  0.10058783  0.57621308  0.48170411    -0.32400
C3971       C  0.11870002  0.57039023  0.47532487     0.21000
C3972       C  0.13096878  0.58277903  0.46575952     0.03200
C3973       C  0.12583260  0.60207319  0.46293220    -0.22200
C3974       C  0.10782702  0.60806281  0.46981336     0.12400
S3975       S  0.07408289  0.60510519  0.48574585    -0.05800
C3976       C  0.08233244  0.62685388  0.47754371    -0.09300
C3977       C  0.10048526  0.62633366  0.46936396    -0.25900
S3978       S  0.15175967  0.57216257  0.45795959    -0.03100
C3979       C  0.14392758  0.55106906  0.46829128    -0.16500
C3980       C  0.12616838  0.55239646  0.47708827    -0.14500
H3981       H  0.09099673  0.56631561  0.48889357     0.20800
H3982       H  0.13543864  0.61197263  0.45577414     0.16900
H3983       H  0.10800833  0.63872104  0.46374439     0.19400
H3984       H  0.11865841  0.54050382  0.48371915     0.12700
C3985       C  0.86922928  0.44510773  0.31812196     0.16600
C3986       C  0.88915631  0.44330569  0.31615427    -0.32400
C3987       C  0.90076853  0.45546115  0.32721812     0.21000
C3988       C  0.89288588  0.46912458  0.33933304     0.03200
C3989       C  0.87297169  0.47091958  0.34130615    -0.22200
C3990       C  0.86137194  0.45844912  0.33060372     0.12400
S3991       S  0.85271280  0.43127209  0.30648275    -0.05800
C3992       C  0.83504485  0.44323421  0.31894130    -0.09300
C3993       C  0.84174813  0.45738638  0.33120880    -0.25900
S3994       S  0.90935323  0.48240145  0.35162565    -0.03100
C3995       C  0.92707500  0.46908974  0.34072257    -0.16500
C3996       C  0.92042394  0.45530359  0.32801698    -0.14500
H3997       H  0.89533260  0.43265878  0.30669126     0.20800
H3998       H  0.86680046  0.48133289  0.35103098     0.16900
H3999       H  0.83275877  0.46632184  0.34017712     0.19400
H4000       H  0.92945867  0.44556629  0.31998024     0.12700
C4001       C  0.06859228  0.47934249  0.38480930     0.16600
C4002       C  0.08709404  0.47399606  0.39059021    -0.32400
C4003       C  0.09598592  0.48507902  0.40485555     0.21000
C4004       C  0.08693726  0.50088912  0.41287908     0.03200
C4005       C  0.06870233  0.50654542  0.40670921    -0.22200
C4006       C  0.05974908  0.49534573  0.39261764     0.12400
S4007       S  0.05457550  0.46677329  0.36907064    -0.05800
C4008       C  0.03664862  0.48329880  0.37305628    -0.09300
C4009       C  0.04153828  0.49780483  0.38577546    -0.25900
S4010       S  0.09947161  0.51168122  0.43091701    -0.03100
C4011       C  0.11705150  0.49475740  0.42755102    -0.16500
C4012       C  0.11351598  0.48166202  0.41307179    -0.14500
H4013       H  0.09399863  0.46140699  0.38468369     0.20800
H4014       H  0.06154556  0.51877663  0.41305815     0.16900
H4015       H  0.03195776  0.50909647  0.39044893     0.19400
H4016       H  0.12303425  0.47004685  0.40913026     0.12700
C4017       C  0.92128510  0.32589691  0.64642013     0.16600
C4018       C  0.91899247  0.32463528  0.62643239    -0.32400
C4019       C  0.93197522  0.33485042  0.61488011     0.21000
C4020       C  0.94666812  0.34558691  0.62294837     0.03200
C4021       C  0.94882768  0.34698050  0.64284916    -0.22200
C4022       C  0.93575177  0.33702585  0.65436030     0.12400
S4023       S  0.90721912  0.31458488  0.66298693    -0.05800
C4024       C  0.92085067  0.32521531  0.68072370    -0.09300
C4025       C  0.93544814  0.33686864  0.67401074    -0.25900
S4026       S  0.96091176  0.35701792  0.60678317    -0.03100
C4027       C  0.94676722  0.34768593  0.58879737    -0.16500
C4028       C  0.93190484  0.33603838  0.59517600    -0.14500
H4029       H  0.90755134  0.31617493  0.62018527     0.20800
H4030       H  0.96015879  0.35558872  0.64910060     0.16900
H4031       H  0.94542161  0.34466505  0.68302544     0.19400
H4032       H  0.92144781  0.32916020  0.58597041     0.12700
C4033       C  0.99274986  0.28463470  0.51873726     0.16600
C4034       C  0.99448943  0.26464603  0.51717348    -0.32400
C4035       C  0.01279371  0.25666321  0.51947008     0.21000
C4036       C  0.02875385  0.26815015  0.52254069     0.03200
C4037       C  0.02701590  0.28815987  0.52406915    -0.22200
C4038       C  0.00860687  0.29609952  0.52236712     0.12400
S4039       S  0.97160670  0.29682580  0.51773767    -0.05800
C4040       C  0.98408785  0.31760002  0.52279981    -0.09300
C4041       C  0.00373211  0.31507429  0.52475412    -0.25900
S4042       S  0.04962154  0.25570355  0.52536245    -0.03100
C4043       C  0.03664650  0.23476229  0.52303333    -0.16500
C4044       C  0.01720270  0.23745472  0.51986742    -0.14500
H4045       H  0.98202151  0.25566548  0.51486333     0.20800
H4046       H  0.03938925  0.29708148  0.52701648     0.16900
H4047       H  0.01380040  0.32636930  0.52829122     0.19400
H4048       H  0.00681210  0.22599389  0.51837481     0.12700
C4049       C  0.96855104  0.43963818  0.43805834     0.16600
C4050       C  0.96753419  0.43625102  0.45791939    -0.32400
C4051       C  0.96497378  0.41717805  0.46407820     0.21000
C4052       C  0.96299676  0.40224116  0.45108553     0.03200
C4053       C  0.96422466  0.40561731  0.43131968    -0.22200
C4054       C  0.96722926  0.42455090  0.42517354     0.12400
S4055       S  0.97195511  0.46158032  0.42741606    -0.05800
C4056       C  0.97214482  0.45013052  0.40544364    -0.09300
C4057       C  0.96940374  0.43044952  0.40655377    -0.25900
S4058       S  0.95935107  0.38020889  0.46133078    -0.03100
C4059       C  0.96118930  0.39107898  0.48337180    -0.16500
C4060       C  0.96417880  0.41078440  0.48268546    -0.14500
H4061       H  0.96887629  0.44790281  0.46810618     0.20800
H4062       H  0.96304707  0.39394146  0.42114428     0.16900
H4063       H  0.96912849  0.42088130  0.39431991     0.19400
H4064       H  0.96548127  0.41993877  0.49517457     0.12700
C4065       C  0.82109058  0.63159738  0.57845505     0.16600
C4066       C  0.81092858  0.64652680  0.58720989    -0.32400
C4067       C  0.81636918  0.66536923  0.58275158     0.21000
C4068       C  0.83127132  0.66924628  0.57016332     0.03200
C4069       C  0.84125027  0.65430431  0.56116434    -0.22200
C4070       C  0.83578420  0.63544240  0.56560870     0.12400
S4071       S  0.81724904  0.60776940  0.58263690    -0.05800
C4072       C  0.83550795  0.60292147  0.56674950    -0.09300
C4073       C  0.84400044  0.61900984  0.55869298    -0.25900
S4074       S  0.83624068  0.69310901  0.56745709    -0.03100
C4075       C  0.81793230  0.69787127  0.58335289    -0.16500
C4076       C  0.80855973  0.68173196  0.59022761    -0.14500
H4077       H  0.79947420  0.64358890  0.59727647     0.20800
H4078       H  0.85293033  0.65723738  0.55136015     0.16900
H4079       H  0.85583089  0.61869771  0.54863813     0.19400
H4080       H  0.79696294  0.68193337  0.60055500     0.12700
C4081       C  0.74076683  0.53034273  0.50889180     0.16600
C4082       C  0.75339081  0.52975679  0.52456037    -0.32400
C4083       C  0.77283312  0.53368633  0.52105613     0.21000
C4084       C  0.77940457  0.53787782  0.50275447     0.03200
C4085       C  0.76686600  0.53807777  0.48705711    -0.22200
C4086       C  0.74744826  0.53423871  0.49056363     0.12400
S4087       S  0.71642717  0.52785316  0.51036081    -0.05800
C4088       C  0.71529550  0.53200814  0.48601681    -0.09300
C4089       C  0.73293467  0.53491227  0.47733310    -0.25900
S4090       S  0.80323762  0.54329105  0.50157893    -0.03100
C4091       C  0.80449683  0.53980000  0.52600805    -0.16500
C4092       C  0.78721800  0.53463991  0.53447629    -0.14500
H4093       H  0.74820408  0.52690523  0.53892111     0.20800
H4094       H  0.77194641  0.54156399  0.47279717     0.16900
H4095       H  0.73492530  0.53845536  0.46233641     0.19400
H4096       H  0.78519653  0.53216088  0.54967746     0.12700
C4097       C  0.89393662  0.47092246  0.53494134     0.16600
C4098       C  0.90709364  0.45806722  0.52696459    -0.32400
C4099       C  0.91147194  0.44154537  0.53748971     0.21000
C4100       C  0.90284192  0.43770251  0.55501502     0.03200
C4101       C  0.88956315  0.45053574  0.56294990    -0.22200
C4102       C  0.88544353  0.46727998  0.55256635     0.12400
S4103       S  0.88788568  0.49240926  0.52502576    -0.05800
C4104       C  0.87402263  0.49678982  0.54499070    -0.09300
C4105       C  0.87385470  0.48205812  0.55836443    -0.25900
S4106       S  0.90991713  0.41660386  0.56531848    -0.03100
C4107       C  0.92489154  0.41332648  0.54601020    -0.16500
C4108       C  0.92420345  0.42759565  0.53228512    -0.14500
H4109       H  0.91392886  0.46101149  0.51332186     0.20800
H4110       H  0.88297646  0.44774869  0.57674177     0.16900
H4111       H  0.86640867  0.48252456  0.57198889     0.19400
H4112       H  0.93230826  0.42752346  0.51902256     0.12700
C4113       C  0.94760715  0.56327336  0.63314207     0.16600
C4114       C  0.92782599  0.56212466  0.62973700    -0.32400
C4115       C  0.92163895  0.56132694  0.61059162     0.21000
C4116       C  0.93451256  0.56209345  0.59545298     0.03200
C4117       C  0.95430910  0.56312204  0.59883852    -0.22200
C4118       C  0.96050373  0.56343949  0.61799654     0.12400
S4119       S  0.95805913  0.56396182  0.65536562    -0.05800
C4120       C  0.97996553  0.56381443  0.64408190    -0.09300
C4121       C  0.97912265  0.56357056  0.62422347    -0.25900
S4122       S  0.92406687  0.56094197  0.57329510    -0.03100
C4123       C  0.90215130  0.55888558  0.58456157    -0.16500
C4124       C  0.90306952  0.55937337  0.60442925    -0.14500
H4125       H  0.91770864  0.56158427  0.64150234     0.20800
H4126       H  0.96444639  0.56334188  0.58707537     0.16900
H4127       H  0.99152814  0.56345836  0.61487080     0.19400
H4128       H  0.89080551  0.55815271  0.61387787     0.12700
C4129       C  0.93115388  0.70859867  0.90156921     0.16600
C4130       C  0.92301489  0.71694826  0.88523308    -0.32400
C4131       C  0.92880741  0.70995871  0.86729744     0.21000
C4132       C  0.94191486  0.69512537  0.86556400     0.03200
C4133       C  0.95019008  0.68684098  0.88193481    -0.22200
C4134       C  0.94459075  0.69404692  0.89991618     0.12400
S4135       S  0.92572012  0.71484002  0.92465172    -0.05800
C4136       C  0.94199877  0.69791277  0.93222112    -0.09300
C4137       C  0.95100044  0.68798087  0.91747839    -0.25900
S4138       S  0.94661623  0.68853603  0.84235652    -0.03100
C4139       C  0.93104472  0.70627178  0.83501887    -0.16500
C4140       C  0.92261571  0.71643626  0.84987784    -0.14500
H4141       H  0.91261275  0.72840282  0.88644133     0.20800
H4142       H  0.96052586  0.67532824  0.88072355     0.16900
H4143       H  0.96138399  0.67662304  0.91952660     0.19400
H4144       H  0.91233198  0.72792237  0.84803686     0.12700
C4145       C  0.98792537  0.76587213  0.99939738     0.16600
C4146       C  0.99090339  0.78578832  0.99915377    -0.32400
C4147       C  0.00992081  0.79239154  0.99966040     0.21000
C4148       C  0.02521497  0.77972850  0.00077793     0.03200
C4149       C  0.02223959  0.75988458  0.00103314    -0.22200
C4150       C  0.00330630  0.75329258  0.00010943     0.12400
S4151       S  0.96608630  0.75485507  0.99784635    -0.05800
C4152       C  0.97792058  0.73314199  0.99758241    -0.09300
C4153       C  0.99766530  0.73452074  0.99905036    -0.25900
S4154       S  0.04717864  0.79039003  0.00102222    -0.03100
C4155       C  0.03575287  0.81221035  0.99930992    -0.16500
C4156       C  0.01589924  0.81113625  0.99869878    -0.14500
H4157       H  0.97896768  0.79566821  0.99820106     0.20800
H4158       H  0.03419937  0.74999597  0.00150758     0.16900
H4159       H  0.00741725  0.72243756  0.99886857     0.19400
H4160       H  0.00640406  0.82335110  0.99739249     0.12700
C4161       C  0.86226047  0.58101746  0.18079375     0.16600
C4162       C  0.87792039  0.57215925  0.17192509    -0.32400
C4163       C  0.89623192  0.57652861  0.17897209     0.21000
C4164       C  0.89889309  0.58911972  0.19414872     0.03200
C4165       C  0.88321787  0.59766927  0.20325118    -0.22200
C4166       C  0.86492182  0.59333938  0.19618730     0.12400
S4167       S  0.83893601  0.57841159  0.17382856    -0.05800
C4168       C  0.83276193  0.59397782  0.19197203    -0.09300
C4169       C  0.84802809  0.60070013  0.20275621    -0.25900
S4170       S  0.92231239  0.59355452  0.19970000    -0.03100
C4171       C  0.92854560  0.57816068  0.18146758    -0.16500
C4172       C  0.91322389  0.56999963  0.17178386    -0.14500
H4173       H  0.87595597  0.56259566  0.15984419     0.20800
H4174       H  0.88520967  0.60757003  0.21505198     0.16900
H4175       H  0.84686237  0.61072716  0.21456371     0.19400
H4176       H  0.91447009  0.56034961  0.15967271     0.12700
C4177       C  0.99311887  0.52427524  0.27730476     0.16600
C4178       C  0.99316913  0.53948892  0.26417228    -0.32400
C4179       C  0.99365639  0.53503366  0.24456787     0.21000
C4180       C  0.99415081  0.51622406  0.23816385     0.03200
C4181       C  0.99456487  0.50089804  0.25138396    -0.22200
C4182       C  0.99395690  0.50539255  0.27112166     0.12400
S4183       S  0.99111589  0.52694460  0.30157272    -0.05800
C4184       C  0.99147661  0.50233450  0.30373865    -0.09300
C4185       C  0.99322393  0.49268260  0.28629978    -0.25900
S4186       S  0.99315626  0.51413742  0.21359618    -0.03100
C4187       C  0.99222879  0.53888816  0.21208384    -0.16500
C4188       C  0.99280641  0.54798440  0.22978386    -0.14500
H4189       H  0.99233540  0.55422018  0.26903504     0.20800
H4190       H  0.99481028  0.48615090  0.24651096     0.16900
H4191       H  0.99329419  0.47722282  0.28476393     0.19400
H4192       H  0.99188743  0.56336502  0.23179718     0.12700
C4193       C  0.95936960  0.65061486  0.07280104     0.16600
C4194       C  0.96027074  0.64675568  0.09263054    -0.32400
C4195       C  0.96548970  0.62805699  0.09838508     0.21000
C4196       C  0.96933140  0.61387486  0.08497741     0.03200
C4197       C  0.96882954  0.61782958  0.06532711    -0.22200
C4198       C  0.96392598  0.63644402  0.05962649     0.12400
S4199       S  0.95292403  0.67208460  0.06243353    -0.05800
C4200       C  0.95710166  0.66179314  0.04030649    -0.09300
C4201       C  0.96287039  0.64281864  0.04113478    -0.25900
S4202       S  0.97453873  0.59194001  0.09449573    -0.03100
C4203       C  0.97198287  0.60184488  0.11694198    -0.16500
C4204       C  0.96728703  0.62126652  0.11687282    -0.14500
H4205       H  0.95698831  0.65776862  0.10307514     0.20800
H4206       H  0.97207263  0.60680328  0.05487340     0.16900
H4207       H  0.96593573  0.63401204  0.02869971     0.19400
H4208       H  0.96509563  0.62984953  0.12962924     0.12700
C4209       C  0.18565682  0.63088251  0.07622700     0.16600
C4210       C  0.18295759  0.65066009  0.07405559    -0.32400
C4211       C  0.19358207  0.66287473  0.08593314     0.21000
C4212       C  0.20650848  0.65573059  0.09925626     0.03200
C4213       C  0.20904911  0.63589136  0.10159570    -0.22200
C4214       C  0.19823513  0.62363743  0.08983218     0.12400
S4215       S  0.17393553  0.61386406  0.06324711    -0.05800
C4216       C  0.18572825  0.59667552  0.07650754    -0.09300
C4217       C  0.19826179  0.60391900  0.09016112    -0.25900
S4218       S  0.21833982  0.67300837  0.11194844    -0.03100
C4219       C  0.20553903  0.68999217  0.09932686    -0.16500
C4220       C  0.19281619  0.68251711  0.08603151    -0.14500
H4221       H  0.17295088  0.65628088  0.06359227     0.20800
H4222       H  0.21895935  0.63026935  0.11214606     0.16900
H4223       H  0.20671399  0.59527247  0.09990439     0.19400
H4224       H  0.18360981  0.69099680  0.07683657     0.12700
C4225       C  0.25256488  0.53088549  0.03343794     0.16600
C4226       C  0.27253376  0.53173387  0.03114095    -0.32400
C4227       C  0.27979154  0.53167963  0.01237541     0.21000
C4228       C  0.26769835  0.53052657  0.99662266     0.03200
C4229       C  0.24773804  0.52978994  0.99891317    -0.22200
C4230       C  0.24047453  0.53015619  0.01765937     0.12400
S4231       S  0.24093363  0.53150029  0.05496160    -0.05800
C4232       C  0.21952740  0.53121864  0.04258345    -0.09300
C4233       C  0.22148372  0.53044296  0.02280709    -0.25900
S4234       S  0.27921703  0.53100671  0.97506489    -0.03100
C4235       C  0.30058224  0.53320531  0.98733081    -0.16500
C4236       C  0.29871282  0.53327323  0.00713712    -0.14500
H4237       H  0.28197657  0.53272375  0.04343215     0.20800
H4238       H  0.23827411  0.52929789  0.98660708     0.16900
H4239       H  0.20966320  0.53053371  0.01273261     0.19400
H4240       H  0.31048461  0.53490445  0.01713688     0.12700
C4241       C  0.09781475  0.56334802  0.12126122     0.16600
C4242       C  0.08582419  0.56829989  0.13664220    -0.32400
C4243       C  0.06600569  0.56592143  0.13410937     0.21000
C4244       C  0.05856242  0.55892076  0.11701539     0.03200
C4245       C  0.07045634  0.55461811  0.10147845    -0.22200
C4246       C  0.09019254  0.55698510  0.10400907     0.12400
S4247       S  0.12228768  0.56349541  0.12191797    -0.05800
C4248       C  0.12209334  0.55521478  0.09863340    -0.09300
C4249       C  0.10404769  0.55263297  0.09085463    -0.25900
S4250       S  0.03444857  0.55554449  0.11709251    -0.03100
C4251       C  0.03422355  0.56392289  0.14030164    -0.16500
C4252       C  0.05195690  0.56920730  0.14751805    -0.14500
H4253       H  0.09170384  0.57326935  0.15013523     0.20800
H4254       H  0.06461000  0.54915353  0.08815657     0.16900
H4255       H  0.10123823  0.54709886  0.07660652     0.19400
H4256       H  0.05445733  0.57462490  0.16185940     0.12700
C4257       C  0.81855912  0.41690552  0.93532629     0.16600
C4258       C  0.80879647  0.40125191  0.92741425    -0.32400
C4259       C  0.81483216  0.38286275  0.93282134     0.21000
C4260       C  0.83005469  0.38010519  0.94532649     0.03200
C4261       C  0.83971219  0.39575099  0.95335283    -0.22200
C4262       C  0.83350617  0.41412913  0.94815762     0.12400
S4263       S  0.81372931  0.44039928  0.93036828    -0.05800
C4264       C  0.83183940  0.44644845  0.94602296    -0.09300
C4265       C  0.84105392  0.43104455  0.95447742    -0.25900
S4266       S  0.83548868  0.35663421  0.94963689    -0.03100
C4267       C  0.81677863  0.35050987  0.93473162    -0.16500
C4268       C  0.80709751  0.36591404  0.92676876    -0.14500
H4269       H  0.79703952  0.40330259  0.91747300     0.20800
H4270       H  0.85154718  0.39370062  0.96320225     0.16900
H4271       H  0.85291405  0.43217079  0.96445193     0.19400
H4272       H  0.79518209  0.36476787  0.91686517     0.12700
C4273       C  0.76759905  0.51277210  0.99469774     0.16600
C4274       C  0.74773597  0.51388887  0.99731498    -0.32400
C4275       C  0.74071909  0.51260962  0.01609218     0.21000
C4276       C  0.75291898  0.51065978  0.03168033     0.03200
C4277       C  0.77283193  0.50942426  0.02905883    -0.22200
C4278       C  0.77983366  0.51038166  0.01019683     0.12400
S4279       S  0.77878329  0.51338712  0.97295149    -0.05800
C4280       C  0.80019720  0.50998303  0.98476066    -0.09300
C4281       C  0.79859982  0.50870228  0.00456650    -0.25900
S4282       S  0.74140734  0.50921321  0.05328038    -0.03100
C4283       C  0.71996077  0.51079144  0.04105530    -0.16500
C4284       C  0.72181799  0.51256854  0.02136935    -0.14500
H4285       H  0.73813321  0.51537790  0.98519976     0.20800
H4286       H  0.78240584  0.50750906  0.04113705     0.16900
H4287       H  0.81047834  0.50631154  0.01428103     0.19400
H4288       H  0.70993590  0.51344868  0.01140577     0.12700
C4289       C  0.91432177  0.60164240  0.97106243     0.16600
C4290       C  0.91243968  0.58195996  0.96783778    -0.32400
C4291       C  0.89390006  0.57432815  0.96753236     0.21000
C4292       C  0.87781125  0.58574005  0.97010795     0.03200
C4293       C  0.87971343  0.60547489  0.97362350    -0.22200
C4294       C  0.89835639  0.61311177  0.97407949     0.12400
S4295       S  0.93566429  0.61347111  0.97186839    -0.05800
C4296       C  0.92307266  0.63412458  0.97665416    -0.09300
C4297       C  0.90331578  0.63185696  0.97739064    -0.25900
S4298       S  0.85653490  0.57357192  0.96844723    -0.03100
C4299       C  0.86966730  0.55304951  0.96456353    -0.16500
C4300       C  0.88929961  0.55553185  0.96459999    -0.14500
H4301       H  0.92490440  0.57297020  0.96562999     0.20800
H4302       H  0.86725409  0.61446629  0.97583387     0.16900
H4303       H  0.89317715  0.64325627  0.98027766     0.19400
H4304       H  0.89964067  0.54416597  0.96232311     0.12700
C4305       C  0.08105369  0.32717649  0.15152205     0.16600
C4306       C  0.08240514  0.32475402  0.13162642    -0.32400
C4307       C  0.07076356  0.33629711  0.12002006     0.21000
C4308       C  0.05791005  0.34927710  0.12787518     0.03200
C4309       C  0.05644411  0.35159479  0.14780753    -0.22200
C4310       C  0.06852087  0.34045035  0.15941208     0.12400
S4311       S  0.09485289  0.31540017  0.16788316    -0.05800
C4312       C  0.08404539  0.32884342  0.18556938    -0.09300
C4313       C  0.07019248  0.34150742  0.17900515    -0.25900
S4314       S  0.04556785  0.36240841  0.11131602    -0.03100
C4315       C  0.05825894  0.35067365  0.09364572    -0.16500
C4316       C  0.07104037  0.33703406  0.10037807    -0.14500
H4317       H  0.09252035  0.31472577  0.12544796     0.20800
H4318       H  0.04675315  0.36204437  0.15396542     0.16900
H4319       H  0.06204325  0.35117019  0.18802246     0.19400
H4320       H  0.08040412  0.32848787  0.09141170     0.12700
C4321       C  0.99902743  0.29485308  0.02274876     0.16600
C4322       C  0.98311772  0.28260845  0.02093706    -0.32400
C4323       C  0.98657353  0.26275044  0.02030857     0.21000
C4324       C  0.00504135  0.25544918  0.02125874     0.03200
C4325       C  0.02092280  0.26767783  0.02260286    -0.22200
C4326       C  0.01746258  0.28746330  0.02341506     0.12400
S4327       S  0.99796183  0.31927684  0.02528098    -0.05800
C4328       C  0.02263051  0.31945603  0.02714847    -0.09300
C4329       C  0.03102002  0.30148090  0.02574404    -0.25900
S4330       S  0.00622337  0.23101379  0.02198047    -0.03100
C4331       C  0.98154368  0.23050573  0.02102078    -0.16500
C4332       C  0.97300341  0.24846012  0.01991029    -0.14500
H4333       H  0.96866634  0.28826569  0.02063608     0.20800
H4334       H  0.03533391  0.26198708  0.02359216     0.16900
H4335       H  0.04625598  0.29873102  0.02695047     0.19400
H4336       H  0.95767824  0.25094610  0.01981161     0.12700
C4337       C  0.09863061  0.44513730  0.05177425     0.16600
C4338       C  0.10300284  0.46470845  0.05177363    -0.32400
C4339       C  0.12129143  0.47022184  0.05794941     0.21000
C4340       C  0.13468859  0.45697233  0.06425890     0.03200
C4341       C  0.13040178  0.43722068  0.06397097    -0.22200
C4342       C  0.11209867  0.43163484  0.05741150     0.12400
S4343       S  0.07705482  0.43582316  0.04498623    -0.05800
C4344       C  0.08622312  0.41334413  0.04932618    -0.09300
C4345       C  0.10510481  0.41322733  0.05575825    -0.25900
S4346       S  0.15593348  0.46711039  0.07170264    -0.03100
C4347       C  0.14668985  0.48921558  0.06551031    -0.16500
C4348       C  0.12812705  0.48856981  0.05848529    -0.14500
H4349       H  0.09258087  0.47522669  0.04709333     0.20800
H4350       H  0.14084118  0.42670323  0.06859094     0.16900
H4351       H  0.11315210  0.40041193  0.05923552     0.19400
H4352       H  0.11997359  0.50102214  0.05402345     0.12700
C4353       C  0.15112089  0.45787295  0.82950850     0.16600
C4354       C  0.13520681  0.46662672  0.83806637    -0.32400
C4355       C  0.11695180  0.46010168  0.83271194     0.21000
C4356       C  0.11457138  0.44556048  0.81934962     0.03200
C4357       C  0.13050233  0.43714244  0.81038268    -0.22200
C4358       C  0.14879854  0.44361001  0.81583566     0.12400
S4359       S  0.17443164  0.46267750  0.83529216    -0.05800
C4360       C  0.18120807  0.44539681  0.81901141    -0.09300
C4361       C  0.16605638  0.43656151  0.80955770    -0.25900
S4362       S  0.09123257  0.43872421  0.81600761    -0.03100
C4363       C  0.08465994  0.45575595  0.83269408    -0.16500
C4364       C  0.09985002  0.46617306  0.84020640    -0.14500
H4365       H  0.13698750  0.47766452  0.84884897     0.20800
H4366       H  0.12874066  0.42568983  0.80003860     0.16900
H4367       H  0.16756965  0.42510288  0.79918028     0.19400
H4368       H  0.09851328  0.47714969  0.85111633     0.12700
C4369       C  0.01869225  0.49394880  0.76736300     0.16600
C4370       C  0.02073480  0.49524169  0.74740484    -0.32400
C4371       C  0.01834197  0.51330715  0.73891296     0.21000
C4372       C  0.01365967  0.52929413  0.74978508     0.03200
C4373       C  0.01154207  0.52799518  0.76976266    -0.22200
C4374       C  0.01445622  0.51001137  0.77831471     0.12400
S4375       S  0.02221791  0.47355164  0.78035674    -0.05800
C4376       C  0.01853083  0.48684434  0.80084292    -0.09300
C4377       C  0.01446873  0.50605237  0.79762409    -0.25900
S4378       S  0.01225062  0.55005383  0.73692507    -0.03100
C4379       C  0.01848841  0.53718085  0.71672579    -0.16500
C4380       C  0.02108576  0.51772005  0.71990845    -0.14500
H4381       H  0.02458600  0.48280633  0.73893508     0.20800
H4382       H  0.00838020  0.54056862  0.77831630     0.16900
H4383       H  0.01212694  0.51659636  0.80878724     0.19400
H4384       H  0.02549111  0.50749592  0.70908084     0.12700
C4385       C  0.94485116  0.47217296  0.88290492     0.16600
C4386       C  0.92486875  0.47392157  0.88515680    -0.32400
C4387       C  0.91794784  0.48009254  0.90309896     0.21000
C4388       C  0.93037837  0.48382951  0.91818080     0.03200
C4389       C  0.95024300  0.48234742  0.91585611    -0.22200
C4390       C  0.95714331  0.47669685  0.89787324     0.12400
S4391       S  0.95638615  0.46505958  0.86236257    -0.05800
C4392       C  0.97786117  0.46897703  0.87398350    -0.09300
C4393       C  0.97602417  0.47511535  0.89277561    -0.25900
S4394       S  0.91943755  0.49042249  0.93899441    -0.03100
C4395       C  0.89779708  0.48879369  0.92726206    -0.16500
C4396       C  0.89911088  0.48316734  0.90817950    -0.14500
H4397       H  0.91518452  0.47076558  0.87343423     0.20800
H4398       H  0.95993249  0.48561467  0.92754894     0.16900
H4399       H  0.98794987  0.47824057  0.90223441     0.19400
H4400       H  0.88698102  0.48119346  0.89868328     0.12700
C4401       C  0.05291698  0.39441586  0.95132617     0.16600
C4402       C  0.05369151  0.39618656  0.93127894    -0.32400
C4403       C  0.04973044  0.41429678  0.92335029     0.21000
C4404       C  0.04576832  0.43001533  0.93489248     0.03200
C4405       C  0.04479785  0.42819888  0.95482579    -0.22200
C4406       C  0.04816208  0.41004262  0.96267813     0.12400
S4407       S  0.05714549  0.37377043  0.96397018    -0.05800
C4408       C  0.05175161  0.38631882  0.98455144    -0.09300
C4409       C  0.04720734  0.40541214  0.98167584    -0.25900
S4410       S  0.04133904  0.45073433  0.92273373    -0.03100
C4411       C  0.04406169  0.43801487  0.90178718    -0.16500
C4412       C  0.04861808  0.41878976  0.90421991    -0.14500
H4413       H  0.05694087  0.38396211  0.92227005     0.20800
H4414       H  0.04124855  0.44035718  0.96381797     0.16900
H4415       H  0.04368313  0.41546505  0.99298801     0.19400
H4416       H  0.05060595  0.40861870  0.89265036     0.12700
loop_ 
_geom_bond_atom_site_label_1 
_geom_bond_atom_site_label_2 
_geom_bond_distance 
_geom_bond_site_symmetry_2 
_ccdc_geom_bond_type 
O1           Ni9   1.915       .  S
O1           C11   1.281       .  A
O2           Ni9   1.925       .  S
O2           C12   1.282       .  A
O3           Ni9   1.912       .  S
O3           C13   1.280   1_455  A
O4           Ni9   1.917       .  S
O4           C14   1.281       .  A
O5          Ni10   1.924       .  S
O5           C14   1.282       .  A
O6          Ni10   1.933       .  S
O6           C13   1.283   1_455  A
O7          Ni10   1.911       .  S
O7           C12   1.280       .  A
O8          Ni10   1.918       .  S
O8           C11   1.281       .  A
Ni9         Ni10   2.390       .  S
C11        C4411   1.467       .  S
C12        C4376   1.470       .  S
C13        C4392   1.472       .  S
C14        C4363   1.474       .  S
O15         Ni23   1.921       .  S
O15          C25   1.282       .  A
O16         Ni23   1.929       .  S
O16          C26   1.283       .  A
O17         Ni23   1.914       .  S
O17          C27   1.280       .  A
O18         Ni23   1.907       .  S
O18          C28   1.279       .  A
O19         Ni24   1.927       .  S
O19          C28   1.282       .  A
O20         Ni24   1.921       .  S
O20          C27   1.282       .  A
O21         Ni24   1.913       .  S
O21          C26   1.281       .  A
O22         Ni24   1.923       .  S
O22          C25   1.281       .  A
Ni23        Ni24   2.390       .  S
C25        C4344   1.474       .  S
C26        C4328   1.476       .  S
C27        C4315   1.472       .  S
C28        C4408   1.466   1_554  S
O29         Ni37   1.912       .  S
O29          C39   1.280       .  A
O30         Ni37   1.917       .  S
O30          C40   1.281       .  A
O31         Ni37   1.907       .  S
O31          C41   1.280       .  A
O32         Ni37   1.906       .  S
O32          C42   1.278       .  A
O33         Ni38   1.923       .  S
O33          C42   1.281       .  A
O34         Ni38   1.915       .  S
O34          C41   1.280       .  A
O35         Ni38   1.919       .  S
O35          C40   1.282       .  A
O36         Ni38   1.930       .  S
O36          C39   1.283       .  A
Ni37        Ni38   2.391       .  S
C39        C4395   1.473       .  S
C40        C4280   1.472       .  S
C41        C4264   1.463       .  S
C42        C4299   1.459       .  S
O43         Ni51   1.916       .  S
O43          C53   1.281       .  A
O44         Ni51   1.924       .  S
O44          C54   1.283       .  A
O45         Ni51   1.901       .  S
O45          C55   1.278       .  A
O46         Ni51   1.904       .  S
O46          C56   1.278       .  A
O47         Ni52   1.930       .  S
O47          C56   1.284       .  A
O48         Ni52   1.942       .  S
O48          C55   1.285       .  A
O49         Ni52   1.914       .  S
O49          C54   1.280       .  A
O50         Ni52   1.914       .  S
O50          C53   1.279       .  A
Ni51        Ni52   2.390       .  S
C53        C4248   1.464       .  S
C54        C4232   1.473       .  S
C55        C4347   1.474       .  S
C56        C4216   1.471       .  S
O57         Ni65   1.928       .  S
O57          C67   1.284       .  A
O58         Ni65   1.939       .  S
O58          C68   1.285       .  A
O59         Ni65   1.904       .  S
O59          C69   1.278       .  A
O60         Ni65   1.898   1_455  S
O60          C70   1.277       .  A
O61         Ni66   1.929   1_455  S
O61          C70   1.283       .  A
O62         Ni66   1.920       .  S
O62          C69   1.282       .  A
O63         Ni66   1.918       .  S
O63          C68   1.282       .  A
O64         Ni66   1.924       .  S
O64          C67   1.281       .  A
Ni65        Ni66   2.389       .  S
C67        C4203   1.478       .  S
C68        C4187   1.486       .  S
C69        C4171   1.464       .  S
C70        C4251   1.463       .  S
O71         Ni79   1.911       .  S
O71          C81   1.280       .  A
O72         Ni79   1.919       .  S
O72          C82   1.282       .  A
O73         Ni79   1.906   1_554  S
O73          C83   1.279       .  A
O74         Ni79   1.910       .  S
O74          C84   1.279       .  A
O75         Ni80   1.931       .  S
O75          C84   1.284       .  A
O76         Ni80   1.939   1_554  S
O76          C83   1.285       .  A
O77         Ni80   1.915       .  S
O77          C82   1.279       .  A
O78         Ni80   1.917       .  S
O78          C81   1.281       .  A
Ni79        Ni80   2.390       .  S
C81        C4296   1.467       .  S
C82        C4152   1.470       .  S
C83        C4200   1.474       .  S
C84        C4136   1.474       .  S
O85         Ni93   1.920       .  S
O85          C95   1.281       .  A
O86         Ni93   1.920       .  S
O86          C96   1.282       .  A
O87         Ni93   1.914       .  S
O87          C97   1.280       .  A
O88         Ni93   1.909       .  S
O88          C98   1.279       .  A
O89         Ni94   1.922       .  S
O89          C98   1.282       .  A
O90         Ni94   1.918       .  S
O90          C97   1.281       .  A
O91         Ni94   1.921       .  S
O91          C96   1.281       .  A
O92         Ni94   1.921       .  S
O92          C95   1.282       .  A
Ni93        Ni94   2.389       .  S
C95        C4123   1.475       .  S
C96        C4091   1.475       .  S
C97        C4072   1.469       .  S
C98        C4104   1.470       .  S
O99        Ni107   1.922       .  S
O99         C109   1.282       .  A
O100       Ni107   1.934       .  S
O100        C110   1.285       .  A
O101       Ni107   1.908       .  S
O101        C111   1.278       .  A
O102       Ni107   1.907       .  S
O102        C112   1.279       .  A
O103       Ni108   1.931       .  S
O103        C112   1.284       .  A
O104       Ni108   1.933       .  S
O104        C111   1.284       .  A
O105       Ni108   1.909       .  S
O105        C110   1.279       .  A
O106       Ni108   1.908       .  S
O106        C109   1.277       .  A
Ni107      Ni108   2.391       .  S
C109       C4107   1.457       .  S
C110       C4040   1.477       .  S
C111       C4059   1.471       .  S
C112       C4027   1.473       .  S
O113       Ni121   1.930       .  S
O113        C123   1.283       .  A
O114       Ni121   1.931       .  S
O114        C124   1.285       .  A
O115       Ni121   1.912       .  S
O115        C125   1.279       .  A
O116       Ni121   1.908   1_455  S
O116        C126   1.279       .  A
O117       Ni122   1.928   1_455  S
O117        C126   1.283       .  A
O118       Ni122   1.923       .  S
O118        C125   1.282       .  A
O119       Ni122   1.925       .  S
O119        C124   1.281       .  A
O120       Ni122   1.921       .  S
O120        C123   1.282       .  A
Ni121      Ni122   2.388       .  S
C123       C4056   1.480       .  S
C124       C4184   1.484       .  S
C125       C3995   1.471       .  S
C126       C4008   1.473       .  S
O127       Ni135   1.920       .  S
O127        C137   1.281       .  A
O128       Ni135   1.926       .  S
O128        C138   1.283       .  A
O129       Ni135   1.903       .  S
O129        C139   1.279       .  A
O130       Ni135   1.912       .  S
O130        C140   1.280       .  A
O131       Ni136   1.926       .  S
O131        C140   1.283       .  A
O132       Ni136   1.932       .  S
O132        C139   1.284       .  A
O133       Ni136   1.911       .  S
O133        C138   1.280       .  A
O134       Ni136   1.912       .  S
O134        C137   1.278       .  A
Ni135      Ni136   2.390       .  S
C137       C4011   1.459       .  S
C138       C3960   1.473       .  S
C139       C3979   1.473       .  S
C140       C3944   1.474       .  S
O141       Ni149   1.920       .  S
O141        C151   1.282       .  A
O142       Ni149   1.933       .  S
O142        C152   1.285       .  A
O143       Ni149   1.909       .  S
O143        C153   1.279   1_455  A
O144       Ni149   1.907       .  S
O144        C154   1.278       .  A
O145       Ni150   1.920       .  S
O145        C154   1.282       .  A
O146       Ni150   1.926       .  S
O146        C153   1.282   1_455  A
O147       Ni150   1.907       .  S
O147        C152   1.278       .  A
O148       Ni150   1.907       .  S
O148        C151   1.279       .  A
Ni149      Ni150   2.391       .  S
C151       C3931   1.466       .  S
C152       C4379   1.475       .  S
C153       C4120   1.465       .  S
C154       C3912   1.466       .  S
O155       Ni163   1.925       .  S
O155        C165   1.283       .  A
O156       Ni163   1.932       .  S
O156        C166   1.284       .  A
O157       Ni163   1.914       .  S
O157        C167   1.280       .  A
O158       Ni163   1.907       .  S
O158        C168   1.278       .  A
O159       Ni164   1.923       .  S
O159        C168   1.281       .  A
O160       Ni164   1.915       .  S
O160        C167   1.281       .  A
O161       Ni164   1.910       .  S
O161        C166   1.280       .  A
O162       Ni164   1.916       .  S
O162        C165   1.280       .  A
Ni163      Ni164   2.391       .  S
C165       C3976   1.469       .  S
C166       C3899   1.476       .  S
C167       C3880   1.469       .  S
C168       C3928   1.460       .  S
O169       Ni177   1.915       .  S
O169        C179   1.280       .  A
O170       Ni177   1.918       .  S
O170        C180   1.281       .  A
O171       Ni177   1.907       .  S
O171        C181   1.280       .  A
O172       Ni177   1.904       .  S
O172        C182   1.278       .  A
O173       Ni178   1.925       .  S
O173        C182   1.283       .  A
O174       Ni178   1.918       .  S
O174        C181   1.280       .  A
O175       Ni178   1.902       .  S
O175        C180   1.278       .  A
O176       Ni178   1.910       .  S
O176        C179   1.279       .  A
Ni177      Ni178   2.392       .  S
C179       C3864   1.460       .  S
C180       C3835   1.463       .  S
C181       C3816   1.464       .  S
C182       C3851   1.467       .  S
O183       Ni191   1.920       .  S
O183        C193   1.282       .  A
O184       Ni191   1.928       .  S
O184        C194   1.284       .  A
O185       Ni191   1.896       .  S
O185        C195   1.277       .  A
O186       Ni191   1.904       .  S
O186        C196   1.278       .  A
O187       Ni192   1.928       .  S
O187        C196   1.284       .  A
O188       Ni192   1.936       .  S
O188        C195   1.284       .  A
O189       Ni192   1.909       .  S
O189        C194   1.279       .  A
O190       Ni192   1.910       .  S
O190        C193   1.278       .  A
Ni191      Ni192   2.391       .  S
C193       C3848   1.462       .  S
C194       C4235   1.474       .  S
C195       C3800   1.467       .  S
C196       C3784   1.469       .  S
O197       Ni205   1.913       .  S
O197        C207   1.280       .  A
O198       Ni205   1.925       .  S
O198        C208   1.283       .  A
O199       Ni205   1.917       .  S
O199        C209   1.281       .  A
O200       Ni205   1.917   1_554  S
O200        C210   1.281       .  A
O201       Ni206   1.928   1_554  S
O201        C210   1.282       .  A
O202       Ni206   1.917       .  S
O202        C209   1.281       .  A
O203       Ni206   1.915       .  S
O203        C208   1.280       .  A
O204       Ni206   1.920       .  S
O204        C207   1.281       .  A
Ni205      Ni206   2.390       .  S
C207       C3803   1.466       .  S
C208       C3752   1.475       .  S
C209       C3736   1.469       .  S
C210       C3771   1.472       .  S
O211       Ni219   1.919       .  S
O211        C221   1.281       .  A
O212       Ni219   1.925       .  S
O212        C222   1.283       .  A
O213       Ni219   1.905       .  S
O213        C223   1.279       .  A
O214       Ni219   1.914       .  S
O214        C224   1.280       .  A
O215       Ni220   1.920       .  S
O215        C224   1.282       .  A
O216       Ni220   1.929       .  S
O216        C223   1.282       .  A
O217       Ni220   1.920       .  S
O217        C222   1.281       .  A
O218       Ni220   1.926       .  S
O218        C221   1.282       .  A
Ni219      Ni220   2.389       .  S
C221       C3768   1.475       .  S
C222       C3707   1.477       .  S
C223       C3720   1.469       .  S
C224       C3688   1.471       .  S
O225       Ni233   1.922       .  S
O225        C235   1.282       .  A
O226       Ni233   1.925       .  S
O226        C236   1.283       .  A
O227       Ni233   1.901       .  S
O227        C237   1.278       .  A
O228       Ni233   1.906       .  S
O228        C238   1.279       .  A
O229       Ni234   1.918       .  S
O229        C238   1.281       .  A
O230       Ni234   1.925       .  S
O230        C237   1.282       .  A
O231       Ni234   1.920       .  S
O231        C236   1.281       .  A
O232       Ni234   1.922       .  S
O232        C235   1.282       .  A
Ni233      Ni234   2.390       .  S
C235       C3672   1.474       .  S
C236       C3656   1.477       .  S
C237       C3867   1.464   1_554  S
C238       C3640   1.467       .  S
O239       Ni247   1.913       .  S
O239        C249   1.280       .  A
O240       Ni247   1.920       .  S
O240        C250   1.282       .  A
O241       Ni247   1.907       .  S
O241        C251   1.279       .  A
O242       Ni247   1.904       .  S
O242        C252   1.278       .  A
O243       Ni248   1.937       .  S
O243        C252   1.284       .  A
O244       Ni248   1.922       .  S
O244        C251   1.282       .  A
O245       Ni248   1.916       .  S
O245        C250   1.280       .  A
O246       Ni248   1.919       .  S
O246        C249   1.281       .  A
Ni247      Ni248   2.391       .  S
C249       C3723   1.464       .  S
C250       C4283   1.471       .  S
C251       C3624   1.467       .  S
C252       C3675   1.471       .  S
O253       Ni261   1.923       .  S
O253        C263   1.282       .  A
O254       Ni261   1.930       .  S
O254        C264   1.284       .  A
O255       Ni261   1.903       .  S
O255        C265   1.278       .  A
O256       Ni261   1.897       .  S
O256        C266   1.277       .  A
O257       Ni262   1.944       .  S
O257        C266   1.286       .  A
O258       Ni262   1.934       .  S
O258        C265   1.284       .  A
O259       Ni262   1.918       .  S
O259        C264   1.281       .  A
O260       Ni262   1.923       .  S
O260        C263   1.281       .  A
Ni261      Ni262   2.389       .  S
C263       C3608   1.473       .  S
C264       C3576   1.478       .  S
C265       C3560   1.469       .  S
C266       C3592   1.476       .  S
O267       Ni275   1.921       .  S
O267        C277   1.282       .  A
O268       Ni275   1.926       .  S
O268        C278   1.283       .  A
O269       Ni275   1.902       .  S
O269        C279   1.278       .  A
O270       Ni275   1.908       .  S
O270        C280   1.279       .  A
O271       Ni276   1.923       .  S
O271        C280   1.282       .  A
O272       Ni276   1.926       .  S
O272        C279   1.282       .  A
O273       Ni276   1.916       .  S
O273        C278   1.281       .  A
O274       Ni276   1.923       .  S
O274        C277   1.281       .  A
Ni275      Ni276   2.390       .  S
C277       C3595   1.471       .  S
C278       C3704   1.476       .  S
C279       C3544   1.462       .  S
C280       C3528   1.470       .  S
O281       Ni289   1.908       .  S
O281        C291   1.279       .  A
O282       Ni289   1.918       .  S
O282        C292   1.281       .  A
O283       Ni289   1.909       .  S
O283        C293   1.279       .  A
O284       Ni289   1.903       .  S
O284        C294   1.279       .  A
O285       Ni290   1.926       .  S
O285        C294   1.282       .  A
O286       Ni290   1.916       .  S
O286        C293   1.281       .  A
O287       Ni290   1.919       .  S
O287        C292   1.282       .  A
O288       Ni290   1.922       .  S
O288        C291   1.282       .  A
Ni289      Ni290   2.392       .  S
C291       C3547   1.465       .  S
C292       C4088   1.471       .  S
C293       C3496   1.464       .  S
C294       C3515   1.464       .  S
O295       Ni303   1.916       .  S
O295        C305   1.281       .  A
O296       Ni303   1.924       .  S
O296        C306   1.283       .  A
O297       Ni303   1.900       .  S
O297        C307   1.278       .  A
O298       Ni303   1.902       .  S
O298        C308   1.278       .  A
O299       Ni304   1.913       .  S
O299        C308   1.280       .  A
O300       Ni304   1.926       .  S
O300        C307   1.282       .  A
O301       Ni304   1.915       .  S
O301        C306   1.280       .  A
O302       Ni304   1.919       .  S
O302        C305   1.281       .  A
Ni303      Ni304   2.392       .  S
C305       C3512   1.468       .  S
C306       C3467   1.473       .  S
C307       C3480   1.462       .  S
C308       C3448   1.459       .  S
O309       Ni317   1.919       .  S
O309        C319   1.282       .  A
O310       Ni317   1.915       .  S
O310        C320   1.280       .  A
O311       Ni317   1.916       .  S
O311        C321   1.280       .  A
O312       Ni317   1.910       .  S
O312        C322   1.279       .  A
O313       Ni318   1.916       .  S
O313        C322   1.281       .  A
O314       Ni318   1.908       .  S
O314        C321   1.280       .  A
O315       Ni318   1.905       .  S
O315        C320   1.279       .  A
O316       Ni318   1.906       .  S
O316        C319   1.278       .  A
Ni317      Ni318   2.392       .  S
C319       C3483   1.463       .  S
C320       C3832   1.462       .  S
C321       C3416   1.465       .  S
C322       C3432   1.460       .  S
O323       Ni331   1.918       .  S
O323        C333   1.281       .  A
O324       Ni331   1.929       .  S
O324        C334   1.283       .  A
O325       Ni331   1.914       .  S
O325        C335   1.280       .  A
O326       Ni331   1.910       .  S
O326        C336   1.279       .  A
O327       Ni332   1.928       .  S
O327        C336   1.284       .  A
O328       Ni332   1.927       .  S
O328        C335   1.283       .  A
O329       Ni332   1.904       .  S
O329        C334   1.278       .  A
O330       Ni332   1.906       .  S
O330        C333   1.277       .  A
Ni331      Ni332   2.390       .  S
C333       C3435   1.456       .  S
C334       C3963   1.470       .  S
C335       C3611   1.473       .  S
C336       C3403   1.473       .  S
O337       Ni345   1.926       .  S
O337        C347   1.283       .  A
O338       Ni345   1.935       .  S
O338        C348   1.285       .  A
O339       Ni345   1.904       .  S
O339        C349   1.279       .  A
O340       Ni345   1.907       .  S
O340        C350   1.278       .  A
O341       Ni346   1.937       .  S
O341        C350   1.285       .  A
O342       Ni346   1.930       .  S
O342        C349   1.283       .  A
O343       Ni346   1.918       .  S
O343        C348   1.280       .  A
O344       Ni346   1.917       .  S
O344        C347   1.280       .  A
Ni345      Ni346   2.389       .  S
C347       C3384   1.473       .  S
C348       C3579   1.483       .  S
C349       C3352   1.472       .  S
C350       C3368   1.473       .  S
O351       Ni359   1.922       .  S
O351        C361   1.282       .  A
O352       Ni359   1.926       .  S
O352        C362   1.283       .  A
O353       Ni359   1.909       .  S
O353        C363   1.279       .  A
O354       Ni359   1.917       .  S
O354        C364   1.281       .  A
O355       Ni360   1.921       .  S
O355        C364   1.282       .  A
O356       Ni360   1.928       .  S
O356        C363   1.282       .  A
O357       Ni360   1.915       .  S
O357        C362   1.280       .  A
O358       Ni360   1.921       .  S
O358        C361   1.282       .  A
Ni359      Ni360   2.390       .  S
C361       C3371   1.474       .  S
C362       C3320   1.473       .  S
C363       C3336   1.464       .  S
C364       C3304   1.471       .  S
O365       Ni373   1.921       .  S
O365        C375   1.282       .  A
O366       Ni373   1.925       .  S
O366        C376   1.283       .  A
O367       Ni373   1.905       .  S
O367        C377   1.279       .  A
O368       Ni373   1.912       .  S
O368        C378   1.280       .  A
O369       Ni374   1.928       .  S
O369        C378   1.283       .  A
O370       Ni374   1.936       .  S
O370        C377   1.284       .  A
O371       Ni374   1.917       .  S
O371        C376   1.281       .  A
O372       Ni374   1.919       .  S
O372        C375   1.280       .  A
Ni373      Ni374   2.388       .  S
C375       C3288   1.470       .  S
C376       C3464   1.476       .  S
C377       C3275   1.478       .  S
C378       C3256   1.475       .  S
O379       Ni387   1.913       .  S
O379        C389   1.281       .  A
O380       Ni387   1.924   1_545  S
O380        C390   1.283       .  A
O381       Ni387   1.908       .  S
O381        C391   1.279       .  A
O382       Ni387   1.902   1_545  S
O382        C392   1.278       .  A
O383       Ni388   1.938       .  S
O383        C392   1.284       .  A
O384       Ni388   1.934   1_565  S
O384        C391   1.284       .  A
O385       Ni388   1.921       .  S
O385        C390   1.281       .  A
O386       Ni388   1.925       .  S
O386        C389   1.282   1_545  A
Ni387      Ni388   2.389   1_565  S
C389       C3339   1.473       .  S
C390       C3240   1.477       .  S
C391       C3227   1.475       .  S
C392       C3291   1.473       .  S
O393       Ni401   1.919       .  S
O393        C403   1.281       .  A
O394       Ni401   1.924       .  S
O394        C404   1.282       .  A
O395       Ni401   1.915       .  S
O395        C405   1.280       .  A
O396       Ni401   1.908       .  S
O396        C406   1.279       .  A
O397       Ni402   1.932       .  S
O397        C406   1.283       .  A
O398       Ni402   1.924       .  S
O398        C405   1.283       .  A
O399       Ni402   1.911       .  S
O399        C404   1.280       .  A
O400       Ni402   1.919       .  S
O400        C403   1.280       .  A
Ni401      Ni402   2.391       .  S
C403       C3272   1.464       .  S
C404       C3195   1.472       .  S
C405       C3179   1.474       .  S
C406       C3208   1.468       .  S
O407       Ni415   1.915       .  S
O407        C417   1.281       .  A
O408       Ni415   1.926       .  S
O408        C418   1.282       .  A
O409       Ni415   1.908       .  S
O409        C419   1.279       .  A
O410       Ni415   1.911       .  S
O410        C420   1.279       .  A
O411       Ni416   1.928       .  S
O411        C420   1.283       .  A
O412       Ni416   1.937       .  S
O412        C419   1.284       .  A
O413       Ni416   1.922       .  S
O413        C418   1.282       .  A
O414       Ni416   1.926       .  S
O414        C417   1.282       .  A
Ni415      Ni416   2.388       .  S
C417       C3211   1.474       .  S
C418       C3160   1.480       .  S
C419       C3387   1.474   1_545  S
C420       C3144   1.473       .  S
O421       Ni429   1.918       .  S
O421        C431   1.281       .  A
O422       Ni429   1.924       .  S
O422        C432   1.282       .  A
O423       Ni429   1.910       .  S
O423        C433   1.280       .  A
O424       Ni429   1.916       .  S
O424        C434   1.281       .  A
O425       Ni430   1.921       .  S
O425        C434   1.281       .  A
O426       Ni430   1.927       .  S
O426        C433   1.282       .  A
O427       Ni430   1.919       .  S
O427        C432   1.281       .  A
O428       Ni430   1.925       .  S
O428        C431   1.282       .  A
Ni429      Ni430   2.389       .  S
C431       C3128   1.473       .  S
C432       C3659   1.475       .  S
C433       C3112   1.471   1_554  S
C434       C3099   1.473       .  S
O435       Ni443   1.925       .  S
O435        C445   1.283       .  A
O436       Ni443   1.935       .  S
O436        C446   1.285       .  A
O437       Ni443   1.905       .  S
O437        C447   1.277       .  A
O438       Ni443   1.901       .  S
O438        C448   1.277       .  A
O439       Ni444   1.940       .  S
O439        C448   1.286       .  A
O440       Ni444   1.929       .  S
O440        C447   1.284       .  A
O441       Ni444   1.915       .  S
O441        C446   1.280       .  A
O442       Ni444   1.918       .  S
O442        C445   1.279       .  A
Ni443      Ni444   2.389       .  S
C445       C3083   1.469       .  S
C446       C3064   1.481       .  S
C447       C3051   1.470       .  S
C448       C3131   1.471   1_545  S
O449       Ni457   1.918       .  S
O449        C459   1.281       .  A
O450       Ni457   1.925   1_545  S
O450        C460   1.282   1_545  A
O451       Ni457   1.917       .  S
O451        C461   1.280       .  A
O452       Ni457   1.906       .  S
O452        C462   1.280       .  A
O453       Ni458   1.923       .  S
O453        C462   1.281       .  A
O454       Ni458   1.913       .  S
O454        C461   1.281       .  A
O455       Ni458   1.910       .  S
O455        C460   1.280       .  A
O456       Ni458   1.918       .  S
O456        C459   1.280       .  A
Ni457      Ni458   2.391       .  S
C459       C3115   1.466       .  S
C460       C3192   1.471   1_565  S
C461       C3016   1.468       .  S
C462       C3032   1.465       .  S
O463       Ni471   1.922       .  S
O463        C473   1.283       .  A
O464       Ni471   1.926       .  S
O464        C474   1.283       .  A
O465       Ni471   1.901       .  S
O465        C475   1.279       .  A
O466       Ni471   1.904       .  S
O466        C476   1.278       .  A
O467       Ni472   1.927       .  S
O467        C476   1.284       .  A
O468       Ni472   1.934       .  S
O468        C475   1.283       .  A
O469       Ni472   1.912       .  S
O469        C474   1.280       .  A
O470       Ni472   1.919       .  S
O470        C473   1.281       .  A
Ni471      Ni472   2.389       .  S
C473       C3003   1.475       .  S
C474       C3323   1.474       .  S
C475       C3080   1.472       .  S
C476       C2984   1.469       .  S
O477       Ni485   1.920       .  S
O477        C487   1.282       .  A
O478       Ni485   1.928       .  S
O478        C488   1.283       .  A
O479       Ni485   1.912       .  S
O479        C489   1.280       .  A
O480       Ni485   1.905   1_554  S
O480        C490   1.278       .  A
O481       Ni486   1.937   1_554  S
O481        C490   1.284       .  A
O482       Ni486   1.932       .  S
O482        C489   1.283       .  A
O483       Ni486   1.913       .  S
O483        C488   1.280       .  A
O484       Ni486   1.918       .  S
O484        C487   1.280       .  A
Ni485      Ni486   2.390       .  S
C487       C2971   1.469       .  S
C488       C3755   1.473       .  S
C489       C2952   1.476       .  S
C490       C3000   1.468       .  S
O491       Ni499   1.919       .  S
O491        C501   1.282       .  A
O492       Ni499   1.932   1_545  S
O492        C502   1.284       .  A
O493       Ni499   1.904   1_545  S
O493        C503   1.278       .  A
O494       Ni499   1.909       .  S
O494        C504   1.279       .  A
O495       Ni500   1.931   1_565  S
O495        C504   1.285       .  A
O496       Ni500   1.938       .  S
O496        C503   1.285       .  A
O497       Ni500   1.916       .  S
O497        C502   1.281       .  A
O498       Ni500   1.915   1_565  S
O498        C501   1.279       .  A
Ni499      Ni500   2.389   1_565  S
C501       C3035   1.467       .  S
C502       C2936   1.480       .  S
C503       C2968   1.474       .  S
C504       C2923   1.475       .  S
O505       Ni513   1.909       .  S
O505        C515   1.279       .  A
O506       Ni513   1.915       .  S
O506        C516   1.281       .  A
O507       Ni513   1.908       .  S
O507        C517   1.280       .  A
O508       Ni513   1.904       .  S
O508        C518   1.279   1_554  A
O509       Ni514   1.926   1_556  S
O509        C518   1.281       .  A
O510       Ni514   1.915       .  S
O510        C517   1.280       .  A
O511       Ni514   1.923       .  S
O511        C516   1.282       .  A
O512       Ni514   1.929       .  S
O512        C515   1.283       .  A
Ni513      Ni514   2.391       .  S
C515       C2907   1.471       .  S
C516       C4331   1.474       .  S
C517       C2872   1.464       .  S
C518       C2891   1.467       .  S
O519       Ni527   1.929       .  S
O519        C529   1.284       .  A
O520       Ni527   1.936   1_545  S
O520        C530   1.285       .  A
O521       Ni527   1.898   1_545  S
O521        C531   1.277       .  A
O522       Ni527   1.907       .  S
O522        C532   1.278       .  A
O523       Ni528   1.930   1_565  S
O523        C532   1.284       .  A
O524       Ni528   1.937       .  S
O524        C531   1.284       .  A
O525       Ni528   1.920       .  S
O525        C530   1.281       .  A
O526       Ni528   1.925   1_565  S
O526        C529   1.281       .  A
Ni527      Ni528   2.388   1_565  S
C529       C2859   1.480       .  S
C530       C2939   1.484       .  S
C531       C2904   1.467       .  S
C532       C2840   1.471       .  S
O533       Ni541   1.929       .  S
O533        C543   1.284       .  A
O534       Ni541   1.941       .  S
O534        C544   1.286       .  A
O535       Ni541   1.910       .  S
O535        C545   1.279       .  A
O536       Ni541   1.912       .  S
O536        C546   1.279   1_455  A
O537       Ni542   1.940       .  S
O537        C546   1.285   1_455  A
O538       Ni542   1.930       .  S
O538        C545   1.284       .  A
O539       Ni542   1.914       .  S
O539        C544   1.280       .  A
O540       Ni542   1.920       .  S
O540        C543   1.281       .  A
Ni541      Ni542   2.387       .  S
C543       C2824   1.480       .  S
C544       C2808   1.482       .  S
C545       C2792   1.473       .  S
C546       C2856   1.480       .  S
O547       Ni555   1.915       .  S
O547        C557   1.282       .  A
O548       Ni555   1.923       .  S
O548        C558   1.282       .  A
O549       Ni555   1.906   1_554  S
O549        C559   1.278       .  A
O550       Ni555   1.906       .  S
O550        C560   1.279       .  A
O551       Ni556   1.933       .  S
O551        C560   1.284       .  A
O552       Ni556   1.939   1_554  S
O552        C559   1.285       .  A
O553       Ni556   1.909   1_554  S
O553        C558   1.279   1_554  A
O554       Ni556   1.912       .  S
O554        C557   1.279       .  A
Ni555      Ni556   2.390       .  S
C557       C2776   1.467       .  S
C558       C4155   1.470       .  S
C559       C2827   1.470       .  S
C560       C2763   1.474       .  S
O561       Ni569   1.927       .  S
O561        C571   1.284       .  A
O562       Ni569   1.933       .  S
O562        C572   1.284       .  A
O563       Ni569   1.895       .  S
O563        C573   1.276       .  A
O564       Ni569   1.892       .  S
O564        C574   1.275       .  A
O565       Ni570   1.933       .  S
O565        C574   1.283       .  A
O566       Ni570   1.928       .  S
O566        C573   1.284       .  A
O567       Ni570   1.922       .  S
O567        C572   1.282       .  A
O568       Ni570   1.924       .  S
O568        C571   1.281       .  A
Ni569      Ni570   2.390       .  S
C571       C2747   1.479       .  S
C572       C3067   1.484       .  S
C573       C2728   1.464       .  S
C574       C2779   1.459   1_545  S
O575       Ni583   1.912       .  S
O575        C585   1.280       .  A
O576       Ni583   1.922       .  S
O576        C586   1.282       .  A
O577       Ni583   1.904   1_455  S
O577        C587   1.278       .  A
O578       Ni583   1.905       .  S
O578        C588   1.279       .  A
O579       Ni584   1.927       .  S
O579        C588   1.283       .  A
O580       Ni584   1.941   1_455  S
O580        C587   1.286       .  A
O581       Ni584   1.916       .  S
O581        C586   1.280       .  A
O582       Ni584   1.919       .  S
O582        C585   1.280       .  A
Ni583      Ni584   2.391       .  S
C585       C2888   1.463       .  S
C586       C2712   1.473       .  S
C587       C2744   1.474       .  S
C588       C2699   1.469       .  S
O589       Ni597   1.924       .  S
O589        C599   1.282       .  A
O590       Ni597   1.936       .  S
O590        C600   1.286       .  A
O591       Ni597   1.906       .  S
O591        C601   1.278       .  A
O592       Ni597   1.904       .  S
O592        C602   1.278   1_455  A
O593       Ni598   1.927       .  S
O593        C602   1.282   1_455  A
O594       Ni598   1.917       .  S
O594        C601   1.281       .  A
O595       Ni598   1.916       .  S
O595        C600   1.280       .  A
O596       Ni598   1.917       .  S
O596        C599   1.280       .  A
Ni597      Ni598   2.390       .  S
C599       C2680   1.468       .  S
C600       C2811   1.483       .  S
C601       C2651   1.463       .  S
C602       C2664   1.465       .  S
O603       Ni611   1.917       .  S
O603        C613   1.280       .  A
O604       Ni611   1.929       .  S
O604        C614   1.284       .  A
O605       Ni611   1.910       .  S
O605        C615   1.279       .  A
O606       Ni611   1.916       .  S
O606        C616   1.280       .  A
O607       Ni612   1.914       .  S
O607        C616   1.281       .  A
O608       Ni612   1.926       .  S
O608        C615   1.282       .  A
O609       Ni612   1.920       .  S
O609        C614   1.281       .  A
O610       Ni612   1.918       .  S
O610        C613   1.281       .  A
Ni611      Ni612   2.390       .  S
C613       C2667   1.468       .  S
C614       C3163   1.480       .  S
C615       C2635   1.470   1_545  S
C616       C2619   1.468       .  S
O617       Ni625   1.925       .  S
O617        C627   1.283       .  A
O618       Ni625   1.931       .  S
O618        C628   1.285       .  A
O619       Ni625   1.910       .  S
O619        C629   1.279       .  A
O620       Ni625   1.906       .  S
O620        C630   1.278       .  A
O621       Ni626   1.936       .  S
O621        C630   1.284       .  A
O622       Ni626   1.926       .  S
O622        C629   1.284       .  A
O623       Ni626   1.915       .  S
O623        C628   1.280       .  A
O624       Ni626   1.913       .  S
O624        C627   1.279       .  A
Ni625      Ni626   2.390       .  S
C627       C2632   1.469       .  S
C628       C3896   1.479       .  S
C629       C2584   1.471       .  S
C630       C2603   1.469       .  S
O631       Ni639   1.921       .  S
O631        C641   1.282       .  A
O632       Ni639   1.928       .  S
O632        C642   1.283       .  A
O633       Ni639   1.903       .  S
O633        C643   1.278       .  A
O634       Ni639   1.907       .  S
O634        C644   1.279       .  A
O635       Ni640   1.921       .  S
O635        C644   1.281       .  A
O636       Ni640   1.933       .  S
O636        C643   1.284       .  A
O637       Ni640   1.914       .  S
O637        C642   1.280       .  A
O638       Ni640   1.920       .  S
O638        C641   1.281       .  A
Ni639      Ni640   2.390       .  S
C641       C2568   1.471       .  S
C642       C4043   1.474       .  S
C643       C2683   1.471       .  S
C644       C2552   1.466       .  S
O645       Ni653   1.923       .  S
O645        C655   1.282       .  A
O646       Ni653   1.932   1_545  S
O646        C656   1.284       .  A
O647       Ni653   1.918       .  S
O647        C657   1.281       .  A
O648       Ni653   1.908   1_545  S
O648        C658   1.280       .  A
O649       Ni654   1.936       .  S
O649        C658   1.284       .  A
O650       Ni654   1.928   1_565  S
O650        C657   1.283       .  A
O651       Ni654   1.913       .  S
O651        C656   1.280       .  A
O652       Ni654   1.916   1_565  S
O652        C655   1.280       .  A
Ni653      Ni654   2.389   1_565  S
C655       C2536   1.469       .  S
C656       C3243   1.477       .  S
C657       C2520   1.477       .  S
C658       C2571   1.473       .  S
O659       Ni667   1.927       .  S
O659        C669   1.283       .  A
O660       Ni667   1.930   1_545  S
O660        C670   1.283   1_545  A
O661       Ni667   1.899       .  S
O661        C671   1.277   1_655  A
O662       Ni667   1.901       .  S
O662        C672   1.277       .  A
O663       Ni668   1.928       .  S
O663        C672   1.284       .  A
O664       Ni668   1.936   1_455  S
O664        C671   1.284       .  A
O665       Ni668   1.913       .  S
O665        C670   1.280       .  A
O666       Ni668   1.919       .  S
O666        C669   1.281       .  A
Ni667      Ni668   2.389       .  S
C669       C2600   1.478       .  S
C670       C2715   1.477   1_565  S
C671       C2539   1.471       .  S
C672       C2504   1.467       .  S
O673       Ni681   1.919       .  S
O673        C683   1.281       .  A
O674       Ni681   1.924       .  S
O674        C684   1.283       .  A
O675       Ni681   1.912       .  S
O675        C685   1.280       .  A
O676       Ni681   1.905       .  S
O676        C686   1.279       .  A
O677       Ni682   1.930       .  S
O677        C686   1.282       .  A
O678       Ni682   1.915       .  S
O678        C685   1.281       .  A
O679       Ni682   1.919       .  S
O679        C684   1.281       .  A
O680       Ni682   1.922       .  S
O680        C683   1.282       .  A
Ni681      Ni682   2.390       .  S
C683       C2488   1.472       .  S
C684       C2456   1.474       .  S
C685       C3819   1.466       .  S
C686       C2475   1.469       .  S
O687       Ni695   1.921       .  S
O687        C697   1.282       .  A
O688       Ni695   1.930       .  S
O688        C698   1.284       .  A
O689       Ni695   1.902       .  S
O689        C699   1.278       .  A
O690       Ni695   1.906       .  S
O690        C700   1.279       .  A
O691       Ni696   1.928       .  S
O691        C700   1.283       .  A
O692       Ni696   1.938       .  S
O692        C699   1.285       .  A
O693       Ni696   1.922       .  S
O693        C698   1.281       .  A
O694       Ni696   1.919       .  S
O694        C697   1.280       .  A
Ni695      Ni696   2.389       .  S
C697       C2472   1.469       .  S
C698       C2424   1.481       .  S
C699       C2440   1.475       .  S
C700       C4139   1.472       .  S
O701       Ni709   1.925       .  S
O701        C711   1.283       .  A
O702       Ni709   1.934       .  S
O702        C712   1.285       .  A
O703       Ni709   1.906       .  S
O703        C713   1.277       .  A
O704       Ni709   1.899       .  S
O704        C714   1.278       .  A
O705       Ni710   1.935       .  S
O705        C714   1.284       .  A
O706       Ni710   1.927       .  S
O706        C713   1.284       .  A
O707       Ni710   1.905       .  S
O707        C712   1.278       .  A
O708       Ni710   1.907       .  S
O708        C711   1.278       .  A
Ni709      Ni710   2.390       .  S
C711       C2408   1.468       .  S
C712       C2376   1.474       .  S
C713       C3355   1.468       .  S
C714       C2392   1.470       .  S
O715       Ni723   1.922       .  S
O715        C725   1.282       .  A
O716       Ni723   1.936       .  S
O716        C726   1.285       .  A
O717       Ni723   1.903       .  S
O717        C727   1.278       .  A
O718       Ni723   1.905       .  S
O718        C728   1.278       .  A
O719       Ni724   1.933       .  S
O719        C728   1.284       .  A
O720       Ni724   1.943       .  S
O720        C727   1.286       .  A
O721       Ni724   1.916       .  S
O721        C726   1.281       .  A
O722       Ni724   1.916       .  S
O722        C725   1.280       .  A
Ni723      Ni724   2.389       .  S
C725       C2395   1.468       .  S
C726       C2360   1.482       .  S
C727       C2491   1.476       .  S
C728       C2920   1.472       .  S
O729       Ni737   1.925       .  S
O729        C739   1.282       .  A
O730       Ni737   1.933       .  S
O730        C740   1.284       .  A
O731       Ni737   1.914       .  S
O731        C741   1.281       .  A
O732       Ni737   1.906       .  S
O732        C742   1.279       .  A
O733       Ni738   1.921       .  S
O733        C742   1.282       .  A
O734       Ni738   1.919       .  S
O734        C741   1.281       .  A
O735       Ni738   1.906       .  S
O735        C740   1.278       .  A
O736       Ni738   1.912       .  S
O736        C739   1.279       .  A
Ni737      Ni738   2.391       .  S
C739       C2443   1.466       .  S
C740       C2328   1.474       .  S
C741       C4075   1.471       .  S
C742       C2344   1.465       .  S
O743       Ni751   1.914       .  S
O743        C753   1.280       .  A
O744       Ni751   1.919       .  S
O744        C754   1.281       .  A
O745       Ni751   1.904       .  S
O745        C755   1.279       .  A
O746       Ni751   1.912       .  S
O746        C756   1.279       .  A
O747       Ni752   1.919       .  S
O747        C756   1.282       .  A
O748       Ni752   1.929       .  S
O748        C755   1.283       .  A
O749       Ni752   1.906       .  S
O749        C754   1.280       .  A
O750       Ni752   1.913       .  S
O750        C753   1.279       .  A
Ni751      Ni752   2.392       .  S
C753       C2347   1.460       .  S
C754       C2312   1.466       .  S
C755       C2411   1.468       .  S
C756       C2507   1.469       .  S
O757       Ni765   1.915       .  S
O757        C767   1.281       .  A
O758       Ni765   1.926       .  S
O758        C768   1.283       .  A
O759       Ni765   1.919       .  S
O759        C769   1.280       .  A
O760       Ni765   1.907       .  S
O760        C770   1.279       .  A
O761       Ni766   1.935       .  S
O761        C770   1.284       .  A
O762       Ni766   1.928       .  S
O762        C769   1.284       .  A
O763       Ni766   1.917       .  S
O763        C768   1.281       .  A
O764       Ni766   1.918       .  S
O764        C767   1.280       .  A
Ni765      Ni766   2.389       .  S
C767       C2296   1.466       .  S
C768       C2264   1.477       .  S
C769       C2523   1.479       .  S
C770       C2280   1.472       .  S
O771       Ni779   1.917       .  S
O771        C781   1.281       .  A
O772       Ni779   1.924       .  S
O772        C782   1.282       .  A
O773       Ni779   1.898       .  S
O773        C783   1.277       .  A
O774       Ni779   1.905       .  S
O774        C784   1.278       .  A
O775       Ni780   1.917       .  S
O775        C784   1.282       .  A
O776       Ni780   1.927       .  S
O776        C783   1.282       .  A
O777       Ni780   1.921       .  S
O777        C782   1.282       .  A
O778       Ni780   1.923       .  S
O778        C781   1.282       .  A
Ni779      Ni780   2.391       .  S
C781       C2283   1.472       .  S
C782       C2232   1.477       .  S
C783       C2248   1.459       .  S
C784       C3915   1.464       .  S
O785       Ni793   1.924       .  S
O785        C795   1.282       .  A
O786       Ni793   1.921       .  S
O786        C796   1.283       .  A
O787       Ni793   1.910       .  S
O787        C797   1.279       .  A
O788       Ni793   1.913       .  S
O788        C798   1.280       .  A
O789       Ni794   1.920       .  S
O789        C798   1.282       .  A
O790       Ni794   1.924       .  S
O790        C797   1.281       .  A
O791       Ni794   1.917       .  S
O791        C796   1.280       .  A
O792       Ni794   1.915       .  S
O792        C795   1.281       .  A
Ni793      Ni794   2.390       .  S
C795       C2219   1.474       .  S
C796       C2184   1.474       .  S
C797       C2200   1.461       .  S
C798       C3787   1.469       .  S
O799       Ni807   1.928       .  S
O799        C809   1.284       .  A
O800       Ni807   1.934       .  S
O800        C810   1.285       .  A
O801       Ni807   1.906       .  S
O801        C811   1.277       .  A
O802       Ni807   1.902       .  S
O802        C812   1.277       .  A
O803       Ni808   1.932       .  S
O803        C812   1.283       .  A
O804       Ni808   1.927       .  S
O804        C811   1.285       .  A
O805       Ni808   1.901       .  S
O805        C810   1.277       .  A
O806       Ni808   1.900       .  S
O806        C809   1.278       .  A
Ni807      Ni808   2.391       .  S
C809       C2251   1.468       .  S
C810       C2379   1.472       .  S
C811       C3563   1.470       .  S
C812       C2216   1.464       .  S
O813       Ni821   1.925       .  S
O813        C823   1.283       .  A
O814       Ni821   1.935       .  S
O814        C824   1.285       .  A
O815       Ni821   1.904       .  S
O815        C825   1.279       .  A
O816       Ni821   1.911       .  S
O816        C826   1.279       .  A
O817       Ni822   1.928       .  S
O817        C826   1.284       .  A
O818       Ni822   1.931       .  S
O818        C825   1.283       .  A
O819       Ni822   1.913       .  S
O819        C824   1.280       .  A
O820       Ni822   1.916       .  S
O820        C823   1.280       .  A
Ni821      Ni822   2.389       .  S
C823       C2168   1.472       .  S
C824       C2427   1.481       .  S
C825       C2299   1.470       .  S
C826       C2760   1.473       .  S
O827       Ni835   1.914       .  S
O827        C837   1.281       .  A
O828       Ni835   1.921       .  S
O828        C838   1.282       .  A
O829       Ni835   1.905       .  S
O829        C839   1.280       .  A
O830       Ni835   1.907       .  S
O830        C840   1.279       .  A
O831       Ni836   1.928       .  S
O831        C840   1.282       .  A
O832       Ni836   1.925       .  S
O832        C839   1.282       .  A
O833       Ni836   1.912       .  S
O833        C838   1.280       .  A
O834       Ni836   1.919       .  S
O834        C837   1.281       .  A
Ni835      Ni836   2.390       .  S
C837       C2203   1.470       .  S
C838       C2152   1.470       .  S
C839       C3019   1.469       .  S
C840       C2171   1.467       .  S
O841       Ni849   1.921       .  S
O841        C851   1.282       .  A
O842       Ni849   1.929       .  S
O842        C852   1.283       .  A
O843       Ni849   1.907       .  S
O843        C853   1.278       .  A
O844       Ni849   1.902       .  S
O844        C854   1.278       .  A
O845       Ni850   1.931       .  S
O845        C854   1.284       .  A
O846       Ni850   1.924       .  S
O846        C853   1.283       .  A
O847       Ni850   1.916       .  S
O847        C852   1.281       .  A
O848       Ni850   1.919       .  S
O848        C851   1.281       .  A
Ni849      Ni850   2.389       .  S
C851       C2136   1.473       .  S
C852       C2107   1.478       .  S
C853       C3883   1.467       .  S
C854       C2120   1.472       .  S
O855       Ni863   1.923       .  S
O855        C865   1.283       .  A
O856       Ni863   1.931       .  S
O856        C866   1.284       .  A
O857       Ni863   1.908       .  S
O857        C867   1.279       .  A
O858       Ni863   1.908       .  S
O858        C868   1.278       .  A
O859       Ni864   1.922       .  S
O859        C868   1.283       .  A
O860       Ni864   1.932       .  S
O860        C867   1.283       .  A
O861       Ni864   1.907       .  S
O861        C866   1.278       .  A
O862       Ni864   1.914       .  S
O862        C865   1.280       .  A
Ni863      Ni864   2.390       .  S
C865       C2091   1.474       .  S
C866       C2072   1.473       .  S
C867       C2139   1.468       .  S
C868       C3531   1.466       .  S
O869       Ni877   1.924       .  S
O869        C879   1.282       .  A
O870       Ni877   1.934       .  S
O870        C880   1.284       .  A
O871       Ni877   1.903       .  S
O871        C881   1.278       .  A
O872       Ni877   1.912       .  S
O872        C882   1.279       .  A
O873       Ni878   1.922       .  S
O873        C882   1.283       .  A
O874       Ni878   1.928       .  S
O874        C881   1.282       .  A
O875       Ni878   1.908       .  S
O875        C880   1.279       .  A
O876       Ni878   1.910       .  S
O876        C879   1.279       .  A
Ni877      Ni878   2.391       .  S
C879       C2123   1.464       .  S
C880       C2187   1.476       .  S
C881       C2056   1.461       .  S
C882       C4219   1.471       .  S
O883       Ni891   1.910       .  S
O883        C893   1.279       .  A
O884       Ni891   1.926       .  S
O884        C894   1.283       .  A
O885       Ni891   1.923       .  S
O885        C895   1.282       .  A
O886       Ni891   1.920       .  S
O886        C896   1.281       .  A
O887       Ni892   1.925       .  S
O887        C896   1.281       .  A
O888       Ni892   1.917       .  S
O888        C895   1.281       .  A
O889       Ni892   1.918       .  S
O889        C894   1.281       .  A
O890       Ni892   1.915       .  S
O890        C893   1.281       .  A
Ni891      Ni892   2.390       .  S
C893       C2040   1.462       .  S
C894       C2267   1.478       .  S
C895       C3224   1.476       .  S
C896       C2088   1.470       .  S
O897       Ni905   1.920       .  S
O897        C907   1.281       .  A
O898       Ni905   1.924       .  S
O898        C908   1.284       .  A
O899       Ni905   1.903       .  S
O899        C909   1.278       .  A
O900       Ni905   1.914       .  S
O900        C910   1.280       .  A
O901       Ni906   1.919       .  S
O901        C910   1.282       .  A
O902       Ni906   1.926       .  S
O902        C909   1.282       .  A
O903       Ni906   1.906       .  S
O903        C908   1.278       .  A
O904       Ni906   1.911       .  S
O904        C907   1.280       .  A
Ni905      Ni906   2.392       .  S
C907       C2024   1.466       .  S
C908       C2008   1.468       .  S
C909       C2043   1.463       .  S
C910       C3096   1.470       .  S
O911       Ni919   1.918       .  S
O911        C921   1.281       .  A
O912       Ni919   1.925       .  S
O912        C922   1.283       .  A
O913       Ni919   1.911       .  S
O913        C923   1.280       .  A
O914       Ni919   1.905       .  S
O914        C924   1.278       .  A
O915       Ni920   1.929       .  S
O915        C924   1.283       .  A
O916       Ni920   1.924       .  S
O916        C923   1.283       .  A
O917       Ni920   1.911       .  S
O917        C922   1.279       .  A
O918       Ni920   1.914       .  S
O918        C921   1.280       .  A
Ni919      Ni920   2.390       .  S
C921       C2059   1.470       .  S
C922       C1992   1.471       .  S
C923       C2795   1.472       .  S
C924       C2027   1.467       .  S
O925       Ni933   1.929       .  S
O925        C935   1.284       .  A
O926       Ni933   1.931       .  S
O926        C936   1.285       .  A
O927       Ni933   1.920       .  S
O927        C937   1.280       .  A
O928       Ni933   1.914       .  S
O928        C938   1.278       .  A
O929       Ni934   1.936       .  S
O929        C938   1.284       .  A
O930       Ni934   1.928       .  S
O930        C937   1.284       .  A
O931       Ni934   1.909       .  S
O931        C936   1.278       .  A
O932       Ni934   1.902       .  S
O932        C935   1.277       .  A
Ni933      Ni934   2.389       .  S
C935       C1979   1.466       .  S
C936       C1944   1.474       .  S
C937       C2955   1.478       .  S
C938       C1963   1.471       .  S
O939       Ni947   1.920       .  S
O939        C949   1.281       .  A
O940       Ni947   1.922       .  S
O940        C950   1.282       .  A
O941       Ni947   1.897       .  S
O941        C951   1.278       .  A
O942       Ni947   1.896       .  S
O942        C952   1.276       .  A
O943       Ni948   1.940       .  S
O943        C952   1.287       .  A
O944       Ni948   1.932       .  S
O944        C951   1.283       .  A
O945       Ni948   1.914       .  S
O945        C950   1.280       .  A
O946       Ni948   1.919       .  S
O946        C949   1.281       .  A
Ni947      Ni948   2.390       .  S
C949       C1928   1.468       .  S
C950       C2459   1.472       .  S
C951       C3419   1.469       .  S
C952       C1912   1.472       .  S
O953       Ni961   1.926       .  S
O953        C963   1.283       .  A
O954       Ni961   1.934       .  S
O954        C964   1.284       .  A
O955       Ni961   1.913       .  S
O955        C965   1.280       .  A
O956       Ni961   1.908       .  S
O956        C966   1.280       .  A
O957       Ni962   1.928       .  S
O957        C966   1.283       .  A
O958       Ni962   1.927       .  S
O958        C965   1.282       .  A
O959       Ni962   1.913       .  S
O959        C964   1.280       .  A
O960       Ni962   1.919       .  S
O960        C963   1.281       .  A
Ni961      Ni962   2.388       .  S
C963       C1960   1.476       .  S
C964       C1896   1.477       .  S
C965       C1931   1.470       .  S
C966       C3147   1.473       .  S
O967       Ni975   1.914       .  S
O967        C977   1.280       .  A
O968       Ni975   1.916       .  S
O968        C978   1.281       .  A
O969       Ni975   1.896       .  S
O969        C979   1.277       .  A
O970       Ni975   1.903       .  S
O970        C980   1.279       .  A
O971       Ni976   1.925       .  S
O971        C980   1.283       .  A
O972       Ni976   1.933       .  S
O972        C979   1.284       .  A
O973       Ni976   1.913       .  S
O973        C978   1.280       .  A
O974       Ni976   1.916       .  S
O974        C977   1.281       .  A
Ni975      Ni976   2.391       .  S
C977       C1883   1.464       .  S
C978       C2315   1.467       .  S
C979       C1976   1.467       .  S
C980       C2696   1.468       .  S
O981       Ni989   1.935       .  S
O981        C991   1.284       .  A
O982       Ni989   1.945       .  S
O982        C992   1.288       .  A
O983       Ni989   1.901       .  S
O983        C993   1.277       .  A
O984       Ni989   1.910       .  S
O984        C994   1.278       .  A
O985       Ni990   1.927       .  S
O985        C994   1.284       .  A
O986       Ni990   1.934       .  S
O986        C993   1.284       .  A
O987       Ni990   1.913       .  S
O987        C992   1.279       .  A
O988       Ni990   1.910       .  S
O988        C991   1.278       .  A
Ni989      Ni990   2.389       .  S
C991       C1915   1.470       .  S
C992       C1848   1.486       .  S
C993       C1864   1.468       .  S
C994       C4024   1.471       .  S
O995      Ni1003   1.916       .  S
O995       C1005   1.281       .  A
O996      Ni1003   1.928       .  S
O996       C1006   1.283       .  A
O997      Ni1003   1.910       .  S
O997       C1007   1.280       .  A
O998      Ni1003   1.906       .  S
O998       C1008   1.279       .  A
O999      Ni1004   1.923       .  S
O999       C1008   1.282       .  A
O1000     Ni1004   1.915       .  S
O1000      C1007   1.280       .  A
O1001     Ni1004   1.924       .  S
O1001      C1006   1.282       .  A
O1002     Ni1004   1.923       .  S
O1002      C1005   1.282       .  A
Ni1003    Ni1004   2.390       .  S
C1005      C1867   1.470       .  S
C1006      C1832   1.482       .  S
C1007      C4267   1.465       .  S
C1008      C1880   1.467       .  S
O1009     Ni1017   1.910       .  S
O1009      C1019   1.280       .  A
O1010     Ni1017   1.921       .  S
O1010      C1020   1.282       .  A
O1011     Ni1017   1.920       .  S
O1011      C1021   1.281       .  A
O1012     Ni1017   1.919       .  S
O1012      C1022   1.280       .  A
O1013     Ni1018   1.932       .  S
O1013      C1022   1.283       .  A
O1014     Ni1018   1.924       .  S
O1014      C1021   1.282       .  A
O1015     Ni1018   1.913       .  S
O1015      C1020   1.280       .  A
O1016     Ni1018   1.912       .  S
O1016      C1019   1.280       .  A
Ni1017    Ni1018   2.390       .  S
C1019      C1819   1.463       .  S
C1020      C2155   1.471       .  S
C1021      C3176   1.475       .  S
C1022      C1803   1.473       .  S
O1023     Ni1031   1.926       .  S
O1023      C1033   1.283       .  A
O1024     Ni1031   1.934       .  S
O1024      C1034   1.284       .  A
O1025     Ni1031   1.907       .  S
O1025      C1035   1.279       .  A
O1026     Ni1031   1.907       .  S
O1026      C1036   1.279       .  A
O1027     Ni1032   1.920       .  S
O1027      C1036   1.282       .  A
O1028     Ni1032   1.927       .  S
O1028      C1035   1.282       .  A
O1029     Ni1032   1.927       .  S
O1029      C1034   1.283       .  A
O1030     Ni1032   1.931       .  S
O1030      C1033   1.283       .  A
Ni1031    Ni1032   2.388       .  S
C1033      C1800   1.484       .  S
C1034      C1851   1.488       .  S
C1035      C1787   1.468       .  S
C1036      C2555   1.467       .  S
O1037     Ni1045   1.913       .  S
O1037      C1047   1.280       .  A
O1038     Ni1045   1.917       .  S
O1038      C1048   1.282       .  A
O1039     Ni1045   1.902       .  S
O1039      C1049   1.278       .  A
O1040     Ni1045   1.910       .  S
O1040      C1050   1.280       .  A
O1041     Ni1046   1.922       .  S
O1041      C1050   1.282       .  A
O1042     Ni1046   1.923       .  S
O1042      C1049   1.282       .  A
O1043     Ni1046   1.907       .  S
O1043      C1048   1.279       .  A
O1044     Ni1046   1.913       .  S
O1044      C1047   1.279       .  A
Ni1045    Ni1046   2.393       .  S
C1047      C1768   1.457       .  S
C1048      C1752   1.466       .  S
C1049      C1816   1.459       .  S
C1050      C3400   1.471       .  S
O1051     Ni1059   1.922       .  S
O1051      C1061   1.282       .  A
O1052     Ni1059   1.929       .  S
O1052      C1062   1.283       .  A
O1053     Ni1059   1.914       .  S
O1053      C1063   1.281       .  A
O1054     Ni1059   1.907       .  S
O1054      C1064   1.280       .  A
O1055     Ni1060   1.921       .  S
O1055      C1064   1.281       .  A
O1056     Ni1060   1.915       .  S
O1056      C1063   1.280       .  A
O1057     Ni1060   1.913       .  S
O1057      C1062   1.280       .  A
O1058     Ni1060   1.917       .  S
O1058      C1061   1.280       .  A
Ni1059    Ni1060   2.390       .  S
C1061      C1736   1.470       .  S
C1062      C1947   1.476       .  S
C1063      C3739   1.468       .  S
C1064      C1771   1.467       .  S
O1065     Ni1073   1.919       .  S
O1065      C1075   1.281       .  A
O1066     Ni1073   1.928       .  S
O1066      C1076   1.284       .  A
O1067     Ni1073   1.909       .  S
O1067      C1077   1.279       .  A
O1068     Ni1073   1.916       .  S
O1068      C1078   1.280       .  A
O1069     Ni1074   1.923       .  S
O1069      C1078   1.283       .  A
O1070     Ni1074   1.931       .  S
O1070      C1077   1.283       .  A
O1071     Ni1074   1.918       .  S
O1071      C1076   1.281       .  A
O1072     Ni1074   1.921       .  S
O1072      C1075   1.281       .  A
Ni1073    Ni1074   2.389       .  S
C1075      C1720   1.471       .  S
C1076      C2235   1.478       .  S
C1077      C1739   1.471       .  S
C1078      C4360   1.473       .  S
O1079     Ni1087   1.920       .  S
O1079      C1089   1.282       .  A
O1080     Ni1087   1.928       .  S
O1080      C1090   1.283       .  A
O1081     Ni1087   1.899       .  S
O1081      C1091   1.277       .  A
O1082     Ni1087   1.898       .  S
O1082      C1092   1.277       .  A
O1083     Ni1088   1.938       .  S
O1083      C1092   1.285       .  A
O1084     Ni1088   1.927       .  S
O1084      C1091   1.284       .  A
O1085     Ni1088   1.909       .  S
O1085      C1090   1.279       .  A
O1086     Ni1088   1.913       .  S
O1086      C1089   1.279       .  A
Ni1087    Ni1088   2.391       .  S
C1089      C1784   1.467       .  S
C1090      C1704   1.472       .  S
C1091      C2731   1.466       .  S
C1092      C1723   1.469       .  S
O1093     Ni1101   1.920       .  S
O1093      C1103   1.281       .  A
O1094     Ni1101   1.923       .  S
O1094      C1104   1.283       .  A
O1095     Ni1101   1.910       .  S
O1095      C1105   1.279       .  A
O1096     Ni1101   1.902       .  S
O1096      C1106   1.279       .  A
O1097     Ni1102   1.928       .  S
O1097      C1106   1.283       .  A
O1098     Ni1102   1.923       .  S
O1098      C1105   1.282       .  A
O1099     Ni1102   1.917       .  S
O1099      C1104   1.280       .  A
O1100     Ni1102   1.919       .  S
O1100      C1103   1.281       .  A
Ni1101    Ni1102   2.390       .  S
C1103      C1688   1.469       .  S
C1104      C1707   1.474       .  S
C1105      C3048   1.469       .  S
C1106      C1672   1.470       .  S
O1107     Ni1115   1.917       .  S
O1107      C1117   1.281       .  A
O1108     Ni1115   1.927       .  S
O1108      C1118   1.282       .  A
O1109     Ni1115   1.908       .  S
O1109      C1119   1.280       .  A
O1110     Ni1115   1.916       .  S
O1110      C1120   1.280       .  A
O1111     Ni1116   1.921       .  S
O1111      C1120   1.282       .  A
O1112     Ni1116   1.930       .  S
O1112      C1119   1.282       .  A
O1113     Ni1116   1.907       .  S
O1113      C1118   1.280       .  A
O1114     Ni1116   1.914       .  S
O1114      C1117   1.279       .  A
Ni1115    Ni1116   2.391       .  S
C1117      C1675   1.461       .  S
C1118      C2075   1.473       .  S
C1119      C1656   1.470       .  S
C1120      C3691   1.472       .  S
O1121     Ni1129   1.917       .  S
O1121      C1131   1.281       .  A
O1122     Ni1129   1.922       .  S
O1122      C1132   1.283       .  A
O1123     Ni1129   1.906       .  S
O1123      C1133   1.279       .  A
O1124     Ni1129   1.901       .  S
O1124      C1134   1.278       .  A
O1125     Ni1130   1.929       .  S
O1125      C1134   1.283       .  A
O1126     Ni1130   1.920       .  S
O1126      C1133   1.281       .  A
O1127     Ni1130   1.912       .  S
O1127      C1132   1.279       .  A
O1128     Ni1130   1.915       .  S
O1128      C1131   1.280       .  A
Ni1129    Ni1130   2.392       .  S
C1131      C1643   1.464       .  S
C1132      C1995   1.471       .  S
C1133      C2648   1.466       .  S
C1134      C1624   1.464       .  S
O1135     Ni1143   1.920       .  S
O1135      C1145   1.282       .  A
O1136     Ni1143   1.930       .  S
O1136      C1146   1.283       .  A
O1137     Ni1143   1.911       .  S
O1137      C1147   1.280       .  A
O1138     Ni1143   1.919       .  S
O1138      C1148   1.281       .  A
O1139     Ni1144   1.923       .  S
O1139      C1148   1.282       .  A
O1140     Ni1144   1.930       .  S
O1140      C1147   1.284       .  A
O1141     Ni1144   1.915       .  S
O1141      C1146   1.280       .  A
O1142     Ni1144   1.915       .  S
O1142      C1145   1.280       .  A
Ni1143    Ni1144   2.389       .  S
C1145      C1627   1.467       .  S
C1146      C1611   1.476       .  S
C1147      C1691   1.474       .  S
C1148      C3259   1.475       .  S
O1149     Ni1157   1.916       .  S
O1149      C1159   1.281       .  A
O1150     Ni1157   1.923       .  S
O1150      C1160   1.282       .  A
O1151     Ni1157   1.909       .  S
O1151      C1161   1.279       .  A
O1152     Ni1157   1.903       .  S
O1152      C1162   1.279       .  A
O1153     Ni1158   1.930       .  S
O1153      C1162   1.282       .  A
O1154     Ni1158   1.927       .  S
O1154      C1161   1.283       .  A
O1155     Ni1158   1.913       .  S
O1155      C1160   1.281       .  A
O1156     Ni1158   1.924       .  S
O1156      C1159   1.281       .  A
Ni1157    Ni1158   2.390       .  S
C1159      C1659   1.471       .  S
C1160      C1576   1.472       .  S
C1161      C4312   1.471       .  S
C1162      C1592   1.466       .  S
O1163     Ni1171   1.908       .  S
O1163      C1173   1.280       .  A
O1164     Ni1171   1.917       .  S
O1164      C1174   1.280       .  A
O1165     Ni1171   1.905       .  S
O1165      C1175   1.279       .  A
O1166     Ni1171   1.916       .  S
O1166      C1176   1.281       .  A
O1167     Ni1172   1.917       .  S
O1167      C1176   1.281       .  A
O1168     Ni1172   1.927       .  S
O1168      C1175   1.282       .  A
O1169     Ni1172   1.911       .  S
O1169      C1174   1.280       .  A
O1170     Ni1172   1.919       .  S
O1170      C1173   1.280       .  A
Ni1171    Ni1172   2.392       .  S
C1173      C1595   1.463       .  S
C1174      C1755   1.463       .  S
C1175      C1640   1.467       .  S
C1176      C3947   1.471       .  S
O1177     Ni1185   1.922       .  S
O1177      C1187   1.282       .  A
O1178     Ni1185   1.932       .  S
O1178      C1188   1.284       .  A
O1179     Ni1185   1.911       .  S
O1179      C1189   1.280       .  A
O1180     Ni1185   1.908       .  S
O1180      C1190   1.279       .  A
O1181     Ni1186   1.932       .  S
O1181      C1190   1.284       .  A
O1182     Ni1186   1.922       .  S
O1182      C1189   1.282       .  A
O1183     Ni1186   1.919       .  S
O1183      C1188   1.281       .  A
O1184     Ni1186   1.920       .  S
O1184      C1187   1.281       .  A
Ni1185    Ni1186   2.390       .  S
C1187      C1560   1.468       .  S
C1188      C1835   1.482       .  S
C1189      C3627   1.470       .  S
C1190      C1547   1.470       .  S
O1191     Ni1199   1.912       .  S
O1191      C1201   1.280       .  A
O1192     Ni1199   1.919       .  S
O1192      C1202   1.282       .  A
O1193     Ni1199   1.905       .  S
O1193      C1203   1.279       .  A
O1194     Ni1199   1.901       .  S
O1194      C1204   1.278       .  A
O1195     Ni1200   1.919       .  S
O1195      C1204   1.281       .  A
O1196     Ni1200   1.927       .  S
O1196      C1203   1.283       .  A
O1197     Ni1200   1.924       .  S
O1197      C1202   1.282       .  A
O1198     Ni1200   1.925       .  S
O1198      C1201   1.282       .  A
Ni1199    Ni1200   2.390       .  S
C1201      C1531   1.472       .  S
C1202      C1608   1.477       .  S
C1203      C1563   1.471       .  S
C1204      C3451   1.462       .  S
O1205     Ni1213   1.922       .  S
O1205      C1215   1.282       .  A
O1206     Ni1213   1.928       .  S
O1206      C1216   1.283       .  A
O1207     Ni1213   1.901       .  S
O1207      C1217   1.278       .  A
O1208     Ni1213   1.907       .  S
O1208      C1218   1.278       .  A
O1209     Ni1214   1.920       .  S
O1209      C1218   1.282       .  A
O1210     Ni1214   1.925       .  S
O1210      C1217   1.282       .  A
O1211     Ni1214   1.916       .  S
O1211      C1216   1.281       .  A
O1212     Ni1214   1.923       .  S
O1212      C1215   1.282       .  A
Ni1213    Ni1214   2.390       .  S
C1215      C1544   1.476       .  S
C1216      C1496   1.477       .  S
C1217      C1515   1.463       .  S
C1218      C2987   1.465       .  S
O1219     Ni1227   1.920       .  S
O1219      C1229   1.282       .  A
O1220     Ni1227   1.929       .  S
O1220      C1230   1.284       .  A
O1221     Ni1227   1.912       .  S
O1221      C1231   1.280       .  A
O1222     Ni1227   1.906       .  S
O1222      C1232   1.278       .  A
O1223     Ni1228   1.929       .  S
O1223      C1232   1.283       .  A
O1224     Ni1228   1.914       .  S
O1224      C1231   1.281       .  A
O1225     Ni1228   1.906       .  S
O1225      C1230   1.278       .  A
O1226     Ni1228   1.907       .  S
O1226      C1229   1.279       .  A
Ni1227    Ni1228   2.392       .  S
C1229      C1512   1.463       .  S
C1230      C1579   1.469       .  S
C1231      C2875   1.465       .  S
C1232      C1480   1.466       .  S
O1233     Ni1241   1.919       .  S
O1233      C1243   1.281       .  A
O1234     Ni1241   1.923       .  S
O1234      C1244   1.283       .  A
O1235     Ni1241   1.910       .  S
O1235      C1245   1.279       .  A
O1236     Ni1241   1.911       .  S
O1236      C1246   1.280       .  A
O1237     Ni1242   1.919       .  S
O1237      C1246   1.281       .  A
O1238     Ni1242   1.927       .  S
O1238      C1245   1.283       .  A
O1239     Ni1242   1.919       .  S
O1239      C1244   1.281       .  A
O1240     Ni1242   1.923       .  S
O1240      C1243   1.282       .  A
Ni1241    Ni1242   2.389       .  S
C1243      C1483   1.473       .  S
C1244      C1899   1.476       .  S
C1245      C1464   1.473       .  S
C1246      C2616   1.468       .  S
O1247     Ni1255   1.922       .  S
O1247      C1257   1.282       .  A
O1248     Ni1255   1.929       .  S
O1248      C1258   1.283       .  A
O1249     Ni1255   1.916       .  S
O1249      C1259   1.280       .  A
O1250     Ni1255   1.907       .  S
O1250      C1260   1.278       .  A
O1251     Ni1256   1.927       .  S
O1251      C1260   1.282       .  A
O1252     Ni1256   1.921       .  S
O1252      C1259   1.282       .  A
O1253     Ni1256   1.911       .  S
O1253      C1258   1.280       .  A
O1254     Ni1256   1.918       .  S
O1254      C1257   1.280       .  A
Ni1255    Ni1256   2.390       .  S
C1257      C1467   1.468       .  S
C1258      C1448   1.475       .  S
C1259      C3992   1.472       .  S
C1260      C1528   1.461       .  S
O1261     Ni1269   1.919       .  S
O1261      C1271   1.282       .  A
O1262     Ni1269   1.930       .  S
O1262      C1272   1.284       .  A
O1263     Ni1269   1.908       .  S
O1263      C1273   1.278       .  A
O1264     Ni1269   1.908       .  S
O1264      C1274   1.279       .  A
O1265     Ni1270   1.931       .  S
O1265      C1274   1.284       .  A
O1266     Ni1270   1.942       .  S
O1266      C1273   1.285       .  A
O1267     Ni1270   1.921       .  S
O1267      C1272   1.281       .  A
O1268     Ni1270   1.922       .  S
O1268      C1271   1.281       .  A
Ni1269    Ni1270   2.388       .  S
C1271      C1432   1.473       .  S
C1272      C2363   1.482       .  S
C1273      C1416   1.475       .  S
C1274      C2843   1.474       .  S
O1275     Ni1283   1.915       .  S
O1275      C1285   1.280       .  A
O1276     Ni1283   1.926       .  S
O1276      C1286   1.282       .  A
O1277     Ni1283   1.913       .  S
O1277      C1287   1.281       .  A
O1278     Ni1283   1.920       .  S
O1278      C1288   1.281       .  A
O1279     Ni1284   1.921       .  S
O1279      C1288   1.282       .  A
O1280     Ni1284   1.929       .  S
O1280      C1287   1.282       .  A
O1281     Ni1284   1.914       .  S
O1281      C1286   1.281       .  A
O1282     Ni1284   1.912       .  S
O1282      C1285   1.281       .  A
Ni1283    Ni1284   2.389       .  S
C1285      C1400   1.466       .  S
C1286      C1499   1.475       .  S
C1287      C1384   1.474       .  S
C1288      C3307   1.475       .  S
O1289     Ni1297   1.920       .  S
O1289      C1299   1.282       .  A
O1290     Ni1297   1.928       .  S
O1290      C1300   1.283       .  A
O1291     Ni1297   1.908       .  S
O1291      C1301   1.279       .  A
O1292     Ni1297   1.905       .  S
O1292      C1302   1.278       .  A
O1293     Ni1298   1.933       .  S
O1293      C1302   1.283       .  A
O1294     Ni1298   1.925       .  S
O1294      C1301   1.283       .  A
O1295     Ni1298   1.916       .  S
O1295      C1300   1.281       .  A
O1296     Ni1298   1.926       .  S
O1296      C1299   1.282       .  A
Ni1297    Ni1298   2.390       .  S
C1299      C1387   1.474       .  S
C1300      C2104   1.478       .  S
C1301      C2587   1.469       .  S
C1302      C1435   1.468       .  S
O1303     Ni1311   1.921       .  S
O1303      C1313   1.282       .  A
O1304     Ni1311   1.923       .  S
O1304      C1314   1.282       .  A
O1305     Ni1311   1.907       .  S
O1305      C1315   1.279       .  A
O1306     Ni1311   1.905       .  S
O1306      C1316   1.279       .  A
O1307     Ni1312   1.928       .  S
O1307      C1316   1.283       .  A
O1308     Ni1312   1.917       .  S
O1308      C1315   1.281       .  A
O1309     Ni1312   1.923       .  S
O1309      C1314   1.282       .  A
O1310     Ni1312   1.928       .  S
O1310      C1313   1.283       .  A
Ni1311    Ni1312   2.389       .  S
C1313      C1419   1.478       .  S
C1314      C1451   1.477       .  S
C1315      C4168   1.466       .  S
C1316      C1371   1.472       .  S
O1317     Ni1325   1.928       .  S
O1317      C1327   1.284       .  A
O1318     Ni1325   1.937       .  S
O1318      C1328   1.285       .  A
O1319     Ni1325   1.901       .  S
O1319      C1329   1.278       .  A
O1320     Ni1325   1.902       .  S
O1320      C1330   1.276       .  A
O1321     Ni1326   1.925       .  S
O1321      C1330   1.282       .  A
O1322     Ni1326   1.921       .  S
O1322      C1329   1.282       .  A
O1323     Ni1326   1.900       .  S
O1323      C1328   1.277       .  A
O1324     Ni1326   1.908       .  S
O1324      C1327   1.278       .  A
Ni1325    Ni1326   2.391       .  S
C1327      C1352   1.471       .  S
C1328      C2331   1.471       .  S
C1329      C3499   1.465       .  S
C1330      C1403   1.459       .  S
O1331     Ni1339   1.917       .  S
O1331      C1341   1.281       .  A
O1332     Ni1339   1.926       .  S
O1332      C1342   1.283       .  A
O1333     Ni1339   1.906       .  S
O1333      C1343   1.279       .  A
O1334     Ni1339   1.914       .  S
O1334      C1344   1.280       .  A
O1335     Ni1340   1.915       .  S
O1335      C1344   1.281       .  A
O1336     Ni1340   1.923       .  S
O1336      C1343   1.281       .  A
O1337     Ni1340   1.906       .  S
O1337      C1342   1.279       .  A
O1338     Ni1340   1.917       .  S
O1338      C1341   1.280       .  A
Ni1339    Ni1340   2.392       .  S
C1341      C1368   1.462       .  S
C1342      C2011   1.470       .  S
C1343      C1355   1.460       .  S
C1344      C3643   1.465       .  S
C1345      S1351   1.706       .  A
C1345      C1350   1.387       .  A
C1345      C1346   1.397       .  A
C1346      C1347   1.399       .  A
C1346      H1357   1.083       .  S
C1347      C1356   1.363       .  A
C1347      C1348   1.387       .  A
C1348      S1354   1.715       .  A
C1348      C1349   1.404       .  A
C1349      C1350   1.407       .  A
C1349      H1358   1.083       .  S
C1350      C1353   1.371       .  A
S1351      C1352   1.719       .  A
C1352      C1353   1.390       .  A
C1353      H1359   1.083       .  S
S1354      C1355   1.721       .  A
C1355      C1356   1.380       .  A
C1356      H1360   1.084       .  S
C1361      S1367   1.704       .  A
C1361      C1366   1.388       .  A
C1361      C1362   1.397       .  A
C1362      C1363   1.399       .  A
C1362      H1373   1.083       .  S
C1363      C1372   1.365       .  A
C1363      C1364   1.387       .  A
C1364      S1370   1.713       .  A
C1364      C1365   1.404       .  A
C1365      C1366   1.406       .  A
C1365      H1374   1.083       .  S
C1366      C1369   1.373       .  A
S1367      C1368   1.717       .  A
C1368      C1369   1.386       .  A
C1369      H1375   1.083       .  S
S1370      C1371   1.724       .  A
C1371      C1372   1.385       .  A
C1372      H1376   1.083       .  S
C1377      S1383   1.719       .  A
C1377      C1382   1.386       .  A
C1377      C1378   1.409       .  A
C1378      C1379   1.410       .  A
C1378      H1389   1.083       .  S
C1379      C1388   1.378       .  A
C1379      C1380   1.387       .  A
C1380      S1386   1.705       .  A
C1380      C1381   1.398       .  A
C1381      C1382   1.399       .  A
C1381      H1390   1.083       .  S
C1382      C1385   1.366       .  A
S1383      C1384   1.726       .  A
C1384      C1385   1.384       .  A
C1385      H1391   1.083       .  S
S1386      C1387   1.719       .  A
C1387      C1388   1.391       .  A
C1388      H1392   1.083       .  S
C1393      S1399   1.706       .  A
C1393      C1398   1.387       .  A
C1393      C1394   1.400       .  A
C1394      C1395   1.401       .  A
C1394      H1405   1.083       .  S
C1395      C1404   1.366       .  A
C1395      C1396   1.388       .  A
C1396      S1402   1.709       .  A
C1396      C1397   1.399       .  A
C1397      C1398   1.401       .  A
C1397      H1406   1.083       .  S
C1398      C1401   1.367       .  A
S1399      C1400   1.722       .  A
C1400      C1401   1.385       .  A
C1401      H1407   1.083       .  S
S1402      C1403   1.717       .  A
C1403      C1404   1.384       .  A
C1404      H1408   1.084       .  S
C1409      S1415   1.720       .  A
C1409      C1414   1.386       .  A
C1409      C1410   1.408       .  A
C1410      C1411   1.410       .  A
C1410      H1421   1.082       .  S
C1411      C1420   1.378       .  A
C1411      C1412   1.387       .  A
C1412      S1418   1.707       .  A
C1412      C1413   1.401       .  A
C1413      C1414   1.402       .  A
C1413      H1422   1.083       .  S
C1414      C1417   1.369       .  A
S1415      C1416   1.724       .  A
C1416      C1417   1.386       .  A
C1417      H1423   1.083       .  S
S1418      C1419   1.722       .  A
C1419      C1420   1.391       .  A
C1420      H1424   1.083       .  S
C1425      S1431   1.703       .  A
C1425      C1430   1.387       .  A
C1425      C1426   1.397       .  A
C1426      C1427   1.399       .  A
C1426      H1437   1.083       .  S
C1427      C1436   1.365       .  A
C1427      C1428   1.387       .  A
C1428      S1434   1.717       .  A
C1428      C1429   1.407       .  A
C1429      C1430   1.408       .  A
C1429      H1438   1.083       .  S
C1430      C1433   1.376       .  A
S1431      C1432   1.720       .  A
C1432      C1433   1.391       .  A
C1433      H1439   1.083       .  S
S1434      C1435   1.724       .  A
C1435      C1436   1.383       .  A
C1436      H1440   1.084       .  S
C1441      S1447   1.704       .  A
C1441      C1446   1.387       .  A
C1441      C1442   1.401       .  A
C1442      C1443   1.401       .  A
C1442      H1453   1.083       .  S
C1443      C1452   1.373       .  A
C1443      C1444   1.387       .  A
C1444      S1450   1.710       .  A
C1444      C1445   1.406       .  A
C1445      C1446   1.405       .  A
C1445      H1454   1.083       .  S
C1446      C1449   1.376       .  A
S1447      C1448   1.723       .  A
C1448      C1449   1.389       .  A
C1449      H1455   1.083       .  S
S1450      C1451   1.726       .  A
C1451      C1452   1.387       .  A
C1452      H1456   1.083       .  S
C1457      S1463   1.711       .  A
C1457      C1462   1.387       .  A
C1457      C1458   1.403       .  A
C1458      C1459   1.404       .  A
C1458      H1469   1.083       .  S
C1459      C1468   1.373       .  A
C1459      C1460   1.388       .  A
C1460      S1466   1.707       .  A
C1460      C1461   1.401       .  A
C1461      C1462   1.402       .  A
C1461      H1470   1.083       .  S
C1462      C1465   1.369       .  A
S1463      C1464   1.723       .  A
C1464      C1465   1.387       .  A
C1465      H1471   1.083       .  S
S1466      C1467   1.721       .  A
C1467      C1468   1.386       .  A
C1468      H1472   1.083       .  S
C1473      S1479   1.716       .  A
C1473      C1478   1.387       .  A
C1473      C1474   1.405       .  A
C1474      C1475   1.406       .  A
C1474      H1485   1.083       .  S
C1475      C1484   1.373       .  A
C1475      C1476   1.387       .  A
C1476      S1482   1.707       .  A
C1476      C1477   1.399       .  A
C1477      C1478   1.401       .  A
C1477      H1486   1.083       .  S
C1478      C1481   1.366       .  A
S1479      C1480   1.721       .  A
C1480      C1481   1.384       .  A
C1481      H1487   1.083       .  S
S1482      C1483   1.722       .  A
C1483      C1484   1.388       .  A
C1484      H1488   1.083       .  S
C1489      S1495   1.709       .  A
C1489      C1494   1.386       .  A
C1489      C1490   1.402       .  A
C1490      C1491   1.403       .  A
C1490      H1501   1.083       .  S
C1491      C1500   1.370   1_545  A
C1491      C1492   1.386       .  A
C1492      S1498   1.712   1_545  A
C1492      C1493   1.404       .  A
C1493      C1494   1.405       .  A
C1493      H1502   1.083       .  S
C1494      C1497   1.372       .  A
S1495      C1496   1.723       .  A
C1496      C1497   1.390       .  A
C1497      H1503   1.083       .  S
S1498      C1499   1.724       .  A
C1499      C1500   1.387       .  A
C1500      H1504   1.083       .  S
C1505      S1511   1.705       .  A
C1505      C1510   1.387       .  A
C1505      C1506   1.396       .  A
C1506      C1507   1.399       .  A
C1506      H1517   1.083       .  S
C1507      C1516   1.361       .  A
C1507      C1508   1.387       .  A
C1508      S1514   1.714       .  A
C1508      C1509   1.402       .  A
C1509      C1510   1.405       .  A
C1509      H1518   1.083       .  S
C1510      C1513   1.368       .  A
S1511      C1512   1.718       .  A
C1512      C1513   1.387       .  A
C1513      H1519   1.083       .  S
S1514      C1515   1.722       .  A
C1515      C1516   1.382       .  A
C1516      H1520   1.084       .  S
C1521      S1527   1.715       .  A
C1521      C1526   1.387       .  A
C1521      C1522   1.405       .  A
C1522      C1523   1.407       .  A
C1522      H1533   1.083       .  S
C1523      C1532   1.374       .  A
C1523      C1524   1.387       .  A
C1524      S1530   1.702       .  A
C1524      C1525   1.397       .  A
C1525      C1526   1.398       .  A
C1525      H1534   1.083       .  S
C1526      C1529   1.364       .  A
S1527      C1528   1.722       .  A
C1528      C1529   1.381       .  A
C1529      H1535   1.084       .  S
S1530      C1531   1.721       .  A
C1531      C1532   1.389       .  A
C1532      H1536   1.083       .  S
C1537      S1543   1.708       .  A
C1537      C1542   1.387       .  A
C1537      C1538   1.401       .  A
C1538      C1539   1.403       .  A
C1538      H1549   1.083       .  S
C1539      C1548   1.369       .  A
C1539      C1540   1.387       .  A
C1540      S1546   1.715       .  A
C1540      C1541   1.405       .  A
C1541      C1542   1.406       .  A
C1541      H1550   1.083       .  S
C1542      C1545   1.374       .  A
S1543      C1544   1.723       .  A
C1544      C1545   1.389       .  A
C1545      H1551   1.083       .  S
S1546      C1547   1.722       .  A
C1547      C1548   1.386       .  A
C1548      H1552   1.084       .  S
C1553      S1559   1.707       .  A
C1553      C1558   1.388       .  A
C1553      C1554   1.399       .  A
C1554      C1555   1.401       .  A
C1554      H1565   1.083       .  S
C1555      C1564   1.366       .  A
C1555      C1556   1.386       .  A
C1556      S1562   1.714       .  A
C1556      C1557   1.404       .  A
C1557      C1558   1.406       .  A
C1557      H1566   1.083       .  S
C1558      C1561   1.373       .  A
S1559      C1560   1.720       .  A
C1560      C1561   1.387       .  A
C1561      H1567   1.083       .  S
S1562      C1563   1.723       .  A
C1563      C1564   1.386       .  A
C1564      H1568   1.083       .  S
C1569      S1575   1.702       .  A
C1569      C1574   1.387       .  A
C1569      C1570   1.400       .  A
C1570      C1571   1.400   1_455  A
C1570      H1581   1.083   1_455  S
C1571      C1580   1.371       .  A
C1571      C1572   1.387   1_655  A
C1572      S1578   1.706   1_455  A
C1572      C1573   1.404       .  A
C1573      C1574   1.404       .  A
C1573      H1582   1.083       .  S
C1574      C1577   1.374       .  A
S1575      C1576   1.722       .  A
C1576      C1577   1.389       .  A
C1577      H1583   1.083       .  S
S1578      C1579   1.725       .  A
C1579      C1580   1.383       .  A
C1580      H1584   1.083       .  S
C1585      S1591   1.716       .  A
C1585      C1590   1.387       .  A
C1585      C1586   1.406       .  A
C1586      C1587   1.407       .  A
C1586      H1597   1.083       .  S
C1587      C1596   1.373       .  A
C1587      C1588   1.388       .  A
C1588      S1594   1.699       .  A
C1588      C1589   1.394       .  A
C1589      C1590   1.396       .  A
C1589      H1598   1.083       .  S
C1590      C1593   1.361       .  A
S1591      C1592   1.724       .  A
C1592      C1593   1.381       .  A
C1593      H1599   1.084       .  S
S1594      C1595   1.717       .  A
C1595      C1596   1.388       .  A
C1596      H1600   1.083       .  S
C1601      S1607   1.708       .  A
C1601      C1606   1.387       .  A
C1601      C1602   1.402       .  A
C1602      C1603   1.403       .  A
C1602      H1613   1.083       .  S
C1603      C1612   1.371       .  A
C1603      C1604   1.386       .  A
C1604      S1610   1.713       .  A
C1604      C1605   1.405       .  A
C1605      C1606   1.406       .  A
C1605      H1614   1.083       .  S
C1606      C1609   1.375       .  A
S1607      C1608   1.724       .  A
C1608      C1609   1.390       .  A
C1609      H1615   1.083       .  S
S1610      C1611   1.724       .  A
C1611      C1612   1.388       .  A
C1612      H1616   1.083       .  S
C1617      S1623   1.714       .  A
C1617      C1622   1.387       .  A
C1617      C1618   1.403       .  A
C1618      C1619   1.406       .  A
C1618      H1629   1.083       .  S
C1619      C1628   1.371       .  A
C1619      C1620   1.387       .  A
C1620      S1626   1.705       .  A
C1620      C1621   1.397       .  A
C1621      C1622   1.399       .  A
C1621      H1630   1.083       .  S
C1622      C1625   1.364       .  A
S1623      C1624   1.722       .  A
C1624      C1625   1.383       .  A
C1625      H1631   1.084       .  S
S1626      C1627   1.720       .  A
C1627      C1628   1.387       .  A
C1628      H1632   1.083       .  S
C1633      S1639   1.714       .  A
C1633      C1638   1.387       .  A
C1633      C1634   1.404       .  A
C1634      C1635   1.406       .  A
C1634      H1645   1.083       .  S
C1635      C1644   1.371       .  A
C1635      C1636   1.388       .  A
C1636      S1642   1.705       .  A
C1636      C1637   1.396       .  A
C1637      C1638   1.399       .  A
C1637      H1646   1.083       .  S
C1638      C1641   1.363       .  A
S1639      C1640   1.723       .  A
C1640      C1641   1.383       .  A
C1641      H1647   1.083       .  S
S1642      C1643   1.718       .  A
C1643      C1644   1.386       .  A
C1644      H1648   1.083       .  S
C1649      S1655   1.718       .  A
C1649      C1654   1.386       .  A
C1649      C1650   1.409       .  A
C1650      C1651   1.410       .  A
C1650      H1661   1.083       .  S
C1651      C1660   1.378       .  A
C1651      C1652   1.387       .  A
C1652      S1658   1.701       .  A
C1652      C1653   1.395       .  A
C1653      C1654   1.397       .  A
C1653      H1662   1.083       .  S
C1654      C1657   1.364       .  A
S1655      C1656   1.726       .  A
C1656      C1657   1.382       .  A
C1657      H1663   1.083       .  S
S1658      C1659   1.718       .  A
C1659      C1660   1.391       .  A
C1660      H1664   1.083       .  S
C1665      S1671   1.714       .  A
C1665      C1670   1.386       .  A
C1665      C1666   1.405       .  A
C1666      C1667   1.407       .  A
C1666      H1677   1.083       .  S
C1667      C1676   1.373       .  A
C1667      C1668   1.388       .  A
C1668      S1674   1.702       .  A
C1668      C1669   1.396       .  A
C1669      C1670   1.398       .  A
C1669      H1678   1.083       .  S
C1670      C1673   1.363       .  A
S1671      C1672   1.724       .  A
C1672      C1673   1.384       .  A
C1673      H1679   1.083       .  S
S1674      C1675   1.716       .  A
C1675      C1676   1.387       .  A
C1676      H1680   1.083       .  S
C1681      S1687   1.709       .  A
C1681      C1686   1.387       .  A
C1681      C1682   1.402       .  A
C1682      C1683   1.404       .  A
C1682      H1693   1.083       .  S
C1683      C1692   1.370       .  A
C1683      C1684   1.386       .  A
C1684      S1690   1.712       .  A
C1684      C1685   1.403       .  A
C1685      C1686   1.404       .  A
C1685      H1694   1.083       .  S
C1686      C1689   1.372       .  A
S1687      C1688   1.722       .  A
C1688      C1689   1.386       .  A
C1689      H1695   1.083       .  S
S1690      C1691   1.722       .  A
C1691      C1692   1.388       .  A
C1692      H1696   1.083       .  S
C1697      S1703   1.702   1_554  A
C1697      C1702   1.387   1_554  A
C1697      C1698   1.400       .  A
C1698      C1699   1.400       .  A
C1698      H1709   1.083       .  S
C1699      C1708   1.370       .  A
C1699      C1700   1.387       .  A
C1700      S1706   1.709       .  A
C1700      C1701   1.405   1_554  A
C1701      C1702   1.405       .  A
C1701      H1710   1.083       .  S
C1702      C1705   1.375       .  A
S1703      C1704   1.722       .  A
C1704      C1705   1.388       .  A
C1705      H1711   1.083       .  S
S1706      C1707   1.726       .  A
C1707      C1708   1.386       .  A
C1708      H1712   1.083       .  S
C1713      S1719   1.707       .  A
C1713      C1718   1.387       .  A
C1713      C1714   1.399       .  A
C1714      C1715   1.401       .  A
C1714      H1725   1.083       .  S
C1715      C1724   1.365       .  A
C1715      C1716   1.387       .  A
C1716      S1722   1.717       .  A
C1716      C1717   1.405       .  A
C1717      C1718   1.407       .  A
C1717      H1726   1.083       .  S
C1718      C1721   1.373       .  A
S1719      C1720   1.721       .  A
C1720      C1721   1.388       .  A
C1721      H1727   1.083       .  S
S1722      C1723   1.722       .  A
C1723      C1724   1.385       .  A
C1724      H1728   1.084       .  S
C1729      S1735   1.707       .  A
C1729      C1734   1.387       .  A
C1729      C1730   1.399       .  A
C1730      C1731   1.401       .  A
C1730      H1741   1.083       .  S
C1731      C1740   1.366       .  A
C1731      C1732   1.387       .  A
C1732      S1738   1.716       .  A
C1732      C1733   1.405       .  A
C1733      C1734   1.407       .  A
C1733      H1742   1.083       .  S
C1734      C1737   1.373       .  A
S1735      C1736   1.720       .  A
C1736      C1737   1.388       .  A
C1737      H1743   1.083       .  S
S1738      C1739   1.723       .  A
C1739      C1740   1.385       .  A
C1740      H1744   1.083       .  S
C1745      S1751   1.703       .  A
C1745      C1750   1.387       .  A
C1745      C1746   1.396       .  A
C1746      C1747   1.398       .  A
C1746      H1757   1.083       .  S
C1747      C1756   1.363       .  A
C1747      C1748   1.387       .  A
C1748      S1754   1.710       .  A
C1748      C1749   1.402       .  A
C1749      C1750   1.404       .  A
C1749      H1758   1.083       .  S
C1750      C1753   1.368       .  A
S1751      C1752   1.719       .  A
C1752      C1753   1.387       .  A
C1753      H1759   1.083       .  S
S1754      C1755   1.723       .  A
C1755      C1756   1.382       .  A
C1756      H1760   1.083       .  S
C1761      S1767   1.704       .  A
C1761      C1766   1.388       .  A
C1761      C1762   1.398       .  A
C1762      C1763   1.399       .  A
C1762      H1773   1.084       .  S
C1763      C1772   1.365       .  A
C1763      C1764   1.387       .  A
C1764      S1770   1.709       .  A
C1764      C1765   1.401       .  A
C1765      C1766   1.403       .  A
C1765      H1774   1.083       .  S
C1766      C1769   1.369       .  A
S1767      C1768   1.718       .  A
C1768      C1769   1.383       .  A
C1769      H1775   1.083       .  S
S1770      C1771   1.723       .  A
C1771      C1772   1.385       .  A
C1772      H1776   1.084       .  S
C1777      S1783   1.703       .  A
C1777      C1782   1.388       .  A
C1777      C1778   1.396       .  A
C1778      C1779   1.398       .  A
C1778      H1789   1.083       .  S
C1779      C1788   1.363       .  A
C1779      C1780   1.387       .  A
C1780      S1786   1.716       .  A
C1780      C1781   1.406       .  A
C1781      C1782   1.407       .  A
C1781      H1790   1.083       .  S
C1782      C1785   1.373       .  A
S1783      C1784   1.717       .  A
C1784      C1785   1.389       .  A
C1785      H1791   1.083       .  S
S1786      C1787   1.724       .  A
C1787      C1788   1.383       .  A
C1788      H1792   1.084       .  S
C1793      S1799   1.709       .  A
C1793      C1798   1.386       .  A
C1793      C1794   1.402       .  A
C1794      C1795   1.403       .  A
C1794      H1805   1.083       .  S
C1795      C1804   1.372       .  A
C1795      C1796   1.387       .  A
C1796      S1802   1.719       .  A
C1796      C1797   1.408       .  A
C1797      C1798   1.410       .  A
C1797      H1806   1.083       .  S
C1798      C1801   1.379       .  A
S1799      C1800   1.724       .  A
C1800      C1801   1.393       .  A
C1801      H1807   1.083       .  S
S1802      C1803   1.723       .  A
C1803      C1804   1.385       .  A
C1804      H1808   1.084       .  S
C1809      S1815   1.711       .  A
C1809      C1814   1.388       .  A
C1809      C1810   1.401       .  A
C1810      C1811   1.403       .  A
C1810      H1821   1.083       .  S
C1811      C1820   1.368       .  A
C1811      C1812   1.388       .  A
C1812      S1818   1.701       .  A
C1812      C1813   1.395       .  A
C1813      C1814   1.397       .  A
C1813      H1822   1.083       .  S
C1814      C1817   1.362       .  A
S1815      C1816   1.720       .  A
C1816      C1817   1.381       .  A
C1817      H1823   1.084       .  S
S1818      C1819   1.719       .  A
C1819      C1820   1.386       .  A
C1820      H1824   1.083       .  S
C1825      S1831   1.713       .  A
C1825      C1830   1.386   1_556  A
C1825      C1826   1.406   1_556  A
C1826      C1827   1.407       .  A
C1826      H1837   1.083       .  S
C1827      C1836   1.375       .  A
C1827      C1828   1.386       .  A
C1828      S1834   1.712       .  A
C1828      C1829   1.404       .  A
C1829      C1830   1.405       .  A
C1829      H1838   1.083       .  S
C1830      C1833   1.375   1_554  A
S1831      C1832   1.726       .  A
C1832      C1833   1.389       .  A
C1833      H1839   1.083       .  S
S1834      C1835   1.724       .  A
C1835      C1836   1.391       .  A
C1836      H1840   1.083       .  S
C1841      S1847   1.716       .  A
C1841      C1846   1.386       .  A
C1841      C1842   1.406       .  A
C1842      C1843   1.407   1_655  A
C1842      H1853   1.083       .  S
C1843      C1852   1.377       .  A
C1843      C1844   1.386       .  A
C1844      S1850   1.715       .  A
C1844      C1845   1.407       .  A
C1845      C1846   1.408   1_455  A
C1845      H1854   1.083       .  S
C1846      C1849   1.377       .  A
S1847      C1848   1.725       .  A
C1848      C1849   1.393       .  A
C1849      H1855   1.083       .  S
S1850      C1851   1.727       .  A
C1851      C1852   1.392       .  A
C1852      H1856   1.083       .  S
C1857      S1863   1.716       .  A
C1857      C1862   1.387       .  A
C1857      C1858   1.405       .  A
C1858      C1859   1.407       .  A
C1858      H1869   1.083       .  S
C1859      C1868   1.374       .  A
C1859      C1860   1.387       .  A
C1860      S1866   1.704       .  A
C1860      C1861   1.398       .  A
C1861      C1862   1.399       .  A
C1861      H1870   1.083       .  S
C1862      C1865   1.365       .  A
S1863      C1864   1.722       .  A
C1864      C1865   1.384       .  A
C1865      H1871   1.084       .  S
S1866      C1867   1.720       .  A
C1867      C1868   1.389       .  A
C1868      H1872   1.083       .  S
C1873      S1879   1.710       .  A
C1873      C1878   1.387       .  A
C1873      C1874   1.401       .  A
C1874      C1875   1.402       .  A
C1874      H1885   1.083       .  S
C1875      C1884   1.369       .  A
C1875      C1876   1.388       .  A
C1876      S1882   1.706       .  A
C1876      C1877   1.400       .  A
C1877      C1878   1.401       .  A
C1877      H1886   1.084       .  S
C1878      C1881   1.367       .  A
S1879      C1880   1.721       .  A
C1880      C1881   1.386       .  A
C1881      H1887   1.084       .  S
S1882      C1883   1.720       .  A
C1883      C1884   1.384       .  A
C1884      H1888   1.083       .  S
C1889      S1895   1.703       .  A
C1889      C1894   1.387       .  A
C1889      C1890   1.401       .  A
C1890      C1891   1.401       .  A
C1890      H1901   1.083       .  S
C1891      C1900   1.372       .  A
C1891      C1892   1.387       .  A
C1892      S1898   1.710       .  A
C1892      C1893   1.406       .  A
C1893      C1894   1.406       .  A
C1893      H1902   1.083       .  S
C1894      C1897   1.378       .  A
S1895      C1896   1.723       .  A
C1896      C1897   1.390       .  A
C1897      H1903   1.083       .  S
S1898      C1899   1.726       .  A
C1899      C1900   1.386       .  A
C1900      H1904   1.083       .  S
C1905      S1911   1.702       .  A
C1905      C1910   1.388       .  A
C1905      C1906   1.403       .  A
C1906      C1907   1.402       .  A
C1906      H1917   1.083       .  S
C1907      C1916   1.376       .  A
C1907      C1908   1.388       .  A
C1908      S1914   1.704       .  A
C1908      C1909   1.403       .  A
C1909      C1910   1.402       .  A
C1909      H1918   1.083       .  S
C1910      C1913   1.376       .  A
S1911      C1912   1.725       .  A
C1912      C1913   1.385       .  A
C1913      H1919   1.083       .  S
S1914      C1915   1.722       .  A
C1915      C1916   1.386       .  A
C1916      H1920   1.083       .  S
C1921      S1927   1.706       .  A
C1921      C1926   1.387       .  A
C1921      C1922   1.400       .  A
C1922      C1923   1.401       .  A
C1922      H1933   1.083       .  S
C1923      C1932   1.368       .  A
C1923      C1924   1.387       .  A
C1924      S1930   1.713       .  A
C1924      C1925   1.404       .  A
C1925      C1926   1.405       .  A
C1925      H1934   1.083       .  S
C1926      C1929   1.373       .  A
S1927      C1928   1.720       .  A
C1928      C1929   1.387       .  A
C1929      H1935   1.083       .  S
S1930      C1931   1.723       .  A
C1931      C1932   1.385       .  A
C1932      H1936   1.083       .  S
C1937      S1943   1.706       .  A
C1937      C1942   1.387       .  A
C1937      C1938   1.404       .  A
C1938      C1939   1.404       .  A
C1938      H1949   1.083       .  S
C1939      C1948   1.375       .  A
C1939      C1940   1.387       .  A
C1940      S1946   1.705       .  A
C1940      C1941   1.402       .  A
C1941      C1942   1.402       .  A
C1941      H1950   1.083       .  S
C1942      C1945   1.374       .  A
S1943      C1944   1.725       .  A
C1944      C1945   1.386       .  A
C1945      H1951   1.083       .  S
S1946      C1947   1.724       .  A
C1947      C1948   1.388       .  A
C1948      H1952   1.083       .  S
C1953      S1959   1.710       .  A
C1953      C1958   1.387       .  A
C1953      C1954   1.403       .  A
C1954      C1955   1.404       .  A
C1954      H1965   1.083       .  S
C1955      C1964   1.374       .  A
C1955      C1956   1.387       .  A
C1956      S1962   1.712       .  A
C1956      C1957   1.405       .  A
C1957      C1958   1.405       .  A
C1957      H1966   1.083       .  S
C1958      C1961   1.374       .  A
S1959      C1960   1.723       .  A
C1960      C1961   1.389       .  A
C1961      H1967   1.083       .  S
S1962      C1963   1.723       .  A
C1963      C1964   1.386       .  A
C1964      H1968   1.083       .  S
C1969      S1975   1.716       .  A
C1969      C1974   1.387       .  A
C1969      C1970   1.403       .  A
C1970      C1971   1.406       .  A
C1970      H1981   1.083       .  S
C1971      C1980   1.368       .  A
C1971      C1972   1.387       .  A
C1972      S1978   1.708       .  A
C1972      C1973   1.396       .  A
C1973      C1974   1.400       .  A
C1973      H1982   1.084       .  S
C1974      C1977   1.361       .  A
S1975      C1976   1.723       .  A
C1976      C1977   1.384       .  A
C1977      H1983   1.084       .  S
S1978      C1979   1.718       .  A
C1979      C1980   1.388       .  A
C1980      H1984   1.083       .  S
C1985      S1991   1.705       .  A
C1985      C1990   1.387       .  A
C1985      C1986   1.401       .  A
C1986      C1987   1.401       .  A
C1986      H1997   1.083       .  S
C1987      C1996   1.370       .  A
C1987      C1988   1.387       .  A
C1988      S1994   1.707       .  A
C1988      C1989   1.402       .  A
C1989      C1990   1.403       .  A
C1989      H1998   1.083       .  S
C1990      C1993   1.372   1_545  A
S1991      C1992   1.723   1_545  A
C1992      C1993   1.386       .  A
C1993      H1999   1.083       .  S
S1994      C1995   1.724       .  A
C1995      C1996   1.386       .  A
C1996      H2000   1.083       .  S
C2001      S2007   1.707       .  A
C2001      C2006   1.387       .  A
C2001      C2002   1.404       .  A
C2002      C2003   1.404       .  A
C2002      H2013   1.083       .  S
C2003      C2012   1.374       .  A
C2003      C2004   1.387       .  A
C2004      S2010   1.699       .  A
C2004      C2005   1.398       .  A
C2005      C2006   1.397       .  A
C2005      H2014   1.083       .  S
C2006      C2009   1.368       .  A
S2007      C2008   1.725       .  A
C2008      C2009   1.382       .  A
C2009      H2015   1.083       .  S
S2010      C2011   1.721       .  A
C2011      C2012   1.388       .  A
C2012      H2016   1.083       .  S
C2017      S2023   1.708       .  A
C2017      C2022   1.387       .  A
C2017      C2018   1.400       .  A
C2018      C2019   1.402       .  A
C2018      H2029   1.083       .  S
C2019      C2028   1.366       .  A
C2019      C2020   1.387       .  A
C2020      S2026   1.712       .  A
C2020      C2021   1.401       .  A
C2021      C2022   1.403       .  A
C2021      H2030   1.083       .  S
C2022      C2025   1.368       .  A
S2023      C2024   1.721       .  A
C2024      C2025   1.385       .  A
C2025      H2031   1.083       .  S
S2026      C2027   1.721       .  A
C2027      C2028   1.385       .  A
C2028      H2032   1.083       .  S
C2033      S2039   1.703       .  A
C2033      C2038   1.388       .  A
C2033      C2034   1.396       .  A
C2034      C2035   1.398       .  A
C2034      H2045   1.084       .  S
C2035      C2044   1.362       .  A
C2035      C2036   1.387       .  A
C2036      S2042   1.713       .  A
C2036      C2037   1.403       .  A
C2037      C2038   1.404       .  A
C2037      H2046   1.083       .  S
C2038      C2041   1.369       .  A
S2039      C2040   1.718       .  A
C2040      C2041   1.386       .  A
C2041      H2047   1.083       .  S
S2042      C2043   1.722       .  A
C2043      C2044   1.382       .  A
C2044      H2048   1.084       .  S
C2049      S2055   1.714       .  A
C2049      C2054   1.387       .  A
C2049      C2050   1.402       .  A
C2050      C2051   1.405       .  A
C2050      H2061   1.083       .  S
C2051      C2060   1.369       .  A
C2051      C2052   1.387       .  A
C2052      S2058   1.706       .  A
C2052      C2053   1.398       .  A
C2053      C2054   1.401       .  A
C2053      H2062   1.083       .  S
C2054      C2057   1.364       .  A
S2055      C2056   1.719       .  A
C2056      C2057   1.383       .  A
C2057      H2063   1.083       .  S
S2058      C2059   1.721       .  A
C2059      C2060   1.387       .  A
C2060      H2064   1.083       .  S
C2065      S2071   1.709       .  A
C2065      C2070   1.387       .  A
C2065      C2066   1.398       .  A
C2066      C2067   1.401       .  A
C2066      H2077   1.083       .  S
C2067      C2076   1.365       .  A
C2067      C2068   1.386       .  A
C2068      S2074   1.714       .  A
C2068      C2069   1.403       .  A
C2069      C2070   1.406       .  A
C2069      H2078   1.083       .  S
C2070      C2073   1.370       .  A
S2071      C2072   1.721       .  A
C2072      C2073   1.390       .  A
C2073      H2079   1.083       .  S
S2074      C2075   1.725       .  A
C2075      C2076   1.385       .  A
C2076      H2080   1.083       .  S
C2081      S2087   1.714       .  A
C2081      C2086   1.387       .  A
C2081      C2082   1.403       .  A
C2082      C2083   1.405       .  A
C2082      H2093   1.083       .  S
C2083      C2092   1.371       .  A
C2083      C2084   1.387       .  A
C2084      S2090   1.709       .  A
C2084      C2085   1.402       .  A
C2085      C2086   1.404       .  A
C2085      H2094   1.083       .  S
C2086      C2089   1.370       .  A
S2087      C2088   1.721       .  A
C2088      C2089   1.386       .  A
C2089      H2095   1.083       .  S
S2090      C2091   1.722       .  A
C2091      C2092   1.389       .  A
C2092      H2096   1.083       .  S
C2097      S2103   1.712       .  A
C2097      C2102   1.386       .  A
C2097      C2098   1.403       .  A
C2098      C2099   1.405   1_655  A
C2098      H2109   1.083       .  S
C2099      C2108   1.372       .  A
C2099      C2100   1.386       .  A
C2100      S2106   1.712       .  A
C2100      C2101   1.403       .  A
C2101      C2102   1.405   1_455  A
C2101      H2110   1.083       .  S
C2102      C2105   1.371       .  A
S2103      C2104   1.725       .  A
C2104      C2105   1.389       .  A
C2105      H2111   1.083       .  S
S2106      C2107   1.724       .  A
C2107      C2108   1.389       .  A
C2108      H2112   1.083       .  S
C2113      S2119   1.714       .  A
C2113      C2118   1.386       .  A
C2113      C2114   1.403       .  A
C2114      C2115   1.405       .  A
C2114      H2125   1.083       .  S
C2115      C2124   1.370       .  A
C2115      C2116   1.387       .  A
C2116      S2122   1.708       .  A
C2116      C2117   1.399       .  A
C2117      C2118   1.402       .  A
C2117      H2126   1.083       .  S
C2118      C2121   1.365       .  A
S2119      C2120   1.723       .  A
C2120      C2121   1.387       .  A
C2121      H2127   1.083       .  S
S2122      C2123   1.720       .  A
C2123      C2124   1.385       .  A
C2124      H2128   1.083       .  S
C2129      S2135   1.705       .  A
C2129      C2134   1.387       .  A
C2129      C2130   1.398       .  A
C2130      C2131   1.400       .  A
C2130      H2141   1.083       .  S
C2131      C2140   1.366       .  A
C2131      C2132   1.387       .  A
C2132      S2138   1.717       .  A
C2132      C2133   1.406       .  A
C2133      C2134   1.408       .  A
C2133      H2142   1.083       .  S
C2134      C2137   1.374       .  A
S2135      C2136   1.721       .  A
C2136      C2137   1.390       .  A
C2137      H2143   1.083       .  S
S2138      C2139   1.723       .  A
C2139      C2140   1.383       .  A
C2140      H2144   1.084       .  S
C2145      S2151   1.709   1_545  A
C2145      C2150   1.387       .  A
C2145      C2146   1.401       .  A
C2146      C2147   1.403       .  A
C2146      H2157   1.083       .  S
C2147      C2156   1.369       .  A
C2147      C2148   1.387       .  A
C2148      S2154   1.708       .  A
C2148      C2149   1.400       .  A
C2149      C2150   1.402       .  A
C2149      H2158   1.083       .  S
C2150      C2153   1.368   1_545  A
S2151      C2152   1.723       .  A
C2152      C2153   1.386       .  A
C2153      H2159   1.083       .  S
S2154      C2155   1.722       .  A
C2155      C2156   1.387       .  A
C2156      H2160   1.083       .  S
C2161      S2167   1.706       .  A
C2161      C2166   1.387       .  A
C2161      C2162   1.398       .  A
C2162      C2163   1.400       .  A
C2162      H2173   1.083       .  S
C2163      C2172   1.365       .  A
C2163      C2164   1.387       .  A
C2164      S2170   1.716       .  A
C2164      C2165   1.405       .  A
C2165      C2166   1.407       .  A
C2165      H2174   1.083       .  S
C2166      C2169   1.373       .  A
S2167      C2168   1.720       .  A
C2168      C2169   1.390       .  A
C2169      H2175   1.083       .  S
S2170      C2171   1.723       .  A
C2171      C2172   1.383       .  A
C2172      H2176   1.083       .  S
C2177      S2183   1.711   1_554  A
C2177      C2182   1.386   1_554  A
C2177      C2178   1.407       .  A
C2178      C2179   1.407       .  A
C2178      H2189   1.083       .  S
C2179      C2188   1.377       .  A
C2179      C2180   1.387       .  A
C2180      S2186   1.702       .  A
C2180      C2181   1.399       .  A
C2181      C2182   1.399   1_554  A
C2181      H2190   1.083   1_554  S
C2182      C2185   1.369       .  A
S2183      C2184   1.727       .  A
C2184      C2185   1.385       .  A
C2185      H2191   1.083       .  S
S2186      C2187   1.723       .  A
C2187      C2188   1.390       .  A
C2188      H2192   1.083       .  S
C2193      S2199   1.712       .  A
C2193      C2198   1.387       .  A
C2193      C2194   1.404       .  A
C2194      C2195   1.405       .  A
C2194      H2205   1.083       .  S
C2195      C2204   1.372       .  A
C2195      C2196   1.387       .  A
C2196      S2202   1.703       .  A
C2196      C2197   1.397       .  A
C2197      C2198   1.399       .  A
C2197      H2206   1.083       .  S
C2198      C2201   1.366       .  A
S2199      C2200   1.722       .  A
C2200      C2201   1.381       .  A
C2201      H2207   1.084       .  S
S2202      C2203   1.721       .  A
C2203      C2204   1.389       .  A
C2204      H2208   1.083       .  S
C2209      S2215   1.714       .  A
C2209      C2214   1.387       .  A
C2209      C2210   1.401       .  A
C2210      C2211   1.404       .  A
C2210      H2221   1.083       .  S
C2211      C2220   1.369       .  A
C2211      C2212   1.386       .  A
C2212      S2218   1.711       .  A
C2212      C2213   1.401       .  A
C2213      C2214   1.403       .  A
C2213      H2222   1.083       .  S
C2214      C2217   1.366       .  A
S2215      C2216   1.719       .  A
C2216      C2217   1.385       .  A
C2217      H2223   1.083       .  S
S2218      C2219   1.724       .  A
C2219      C2220   1.387       .  A
C2220      H2224   1.083       .  S
C2225      S2231   1.708       .  A
C2225      C2230   1.387       .  A
C2225      C2226   1.403       .  A
C2226      C2227   1.404       .  A
C2226      H2237   1.083       .  S
C2227      C2236   1.374       .  A
C2227      C2228   1.387       .  A
C2228      S2234   1.709       .  A
C2228      C2229   1.404       .  A
C2229      C2230   1.405       .  A
C2229      H2238   1.083       .  S
C2230      C2233   1.374       .  A
S2231      C2232   1.724       .  A
C2232      C2233   1.389       .  A
C2233      H2239   1.083       .  S
S2234      C2235   1.726       .  A
C2235      C2236   1.388       .  A
C2236      H2240   1.083       .  S
C2241      S2247   1.715       .  A
C2241      C2246   1.387       .  A
C2241      C2242   1.400       .  A
C2242      C2243   1.404       .  A
C2242      H2253   1.083       .  S
C2243      C2252   1.365       .  A
C2243      C2244   1.387       .  A
C2244      S2250   1.709       .  A
C2244      C2245   1.397       .  A
C2245      C2246   1.401       .  A
C2245      H2254   1.083       .  S
C2246      C2249   1.361       .  A
S2247      C2248   1.719       .  A
C2248      C2249   1.382       .  A
C2249      H2255   1.084       .  S
S2250      C2251   1.720       .  A
C2251      C2252   1.387       .  A
C2252      H2256   1.083       .  S
C2257      S2263   1.711       .  A
C2257      C2262   1.386       .  A
C2257      C2258   1.403       .  A
C2258      C2259   1.405       .  A
C2258      H2269   1.083       .  S
C2259      C2268   1.372       .  A
C2259      C2260   1.386       .  A
C2260      S2266   1.711       .  A
C2260      C2261   1.403       .  A
C2261      C2262   1.404       .  A
C2261      H2270   1.083       .  S
C2262      C2265   1.371       .  A
S2263      C2264   1.724       .  A
C2264      C2265   1.388       .  A
C2265      H2271   1.083       .  S
S2266      C2267   1.724       .  A
C2267      C2268   1.389       .  A
C2268      H2272   1.083       .  S
C2273      S2279   1.718       .  A
C2273      C2278   1.386       .  A
C2273      C2274   1.407       .  A
C2274      C2275   1.408       .  A
C2274      H2285   1.083       .  S
C2275      C2284   1.375       .  A
C2275      C2276   1.387       .  A
C2276      S2282   1.705       .  A
C2276      C2277   1.398       .  A
C2277      C2278   1.400       .  A
C2277      H2286   1.083       .  S
C2278      C2281   1.366       .  A
S2279      C2280   1.724       .  A
C2280      C2281   1.385       .  A
C2281      H2287   1.083       .  S
S2282      C2283   1.720       .  A
C2283      C2284   1.390       .  A
C2284      H2288   1.083       .  S
C2289      S2295   1.702       .  A
C2289      C2294   1.388       .  A
C2289      C2290   1.396       .  A
C2290      C2291   1.398       .  A
C2290      H2301   1.083       .  S
C2291      C2300   1.364       .  A
C2291      C2292   1.387       .  A
C2292      S2298   1.715       .  A
C2292      C2293   1.406       .  A
C2293      C2294   1.407       .  A
C2293      H2302   1.083       .  S
C2294      C2297   1.374       .  A
S2295      C2296   1.718       .  A
C2296      C2297   1.388       .  A
C2297      H2303   1.083       .  S
S2298      C2299   1.724       .  A
C2299      C2300   1.384       .  A
C2300      H2304   1.084       .  S
C2305      S2311   1.709   1_545  A
C2305      C2310   1.387       .  A
C2305      C2306   1.401       .  A
C2306      C2307   1.403       .  A
C2306      H2317   1.083       .  S
C2307      C2316   1.368       .  A
C2307      C2308   1.387       .  A
C2308      S2314   1.705       .  A
C2308      C2309   1.398       .  A
C2309      C2310   1.400       .  A
C2309      H2318   1.083       .  S
C2310      C2313   1.364   1_545  A
S2311      C2312   1.722       .  A
C2312      C2313   1.384       .  A
C2313      H2319   1.083       .  S
S2314      C2315   1.721       .  A
C2315      C2316   1.387       .  A
C2316      H2320   1.083       .  S
C2321      S2327   1.701       .  A
C2321      C2326   1.387       .  A
C2321      C2322   1.403       .  A
C2322      C2323   1.401       .  A
C2322      H2333   1.083       .  S
C2323      C2332   1.376       .  A
C2323      C2324   1.388       .  A
C2324      S2330   1.701       .  A
C2324      C2325   1.403       .  A
C2325      C2326   1.401       .  A
C2325      H2334   1.083       .  S
C2326      C2329   1.375       .  A
S2327      C2328   1.724       .  A
C2328      C2329   1.387       .  A
C2329      H2335   1.083       .  S
S2330      C2331   1.724       .  A
C2331      C2332   1.386       .  A
C2332      H2336   1.083       .  S
C2337      S2343   1.708       .  A
C2337      C2342   1.387       .  A
C2337      C2338   1.401       .  A
C2338      C2339   1.402       .  A
C2338      H2349   1.083       .  S
C2339      C2348   1.369       .  A
C2339      C2340   1.388       .  A
C2340      S2346   1.704       .  A
C2340      C2341   1.399       .  A
C2341      C2342   1.400       .  A
C2341      H2350   1.083       .  S
C2342      C2345   1.366       .  A
S2343      C2344   1.721       .  A
C2344      C2345   1.385       .  A
C2345      H2351   1.084       .  S
S2346      C2347   1.719       .  A
C2347      C2348   1.384       .  A
C2348      H2352   1.083       .  S
C2353      S2359   1.707   1_554  A
C2353      C2358   1.386   1_554  A
C2353      C2354   1.405       .  A
C2354      C2355   1.404       .  A
C2354      H2365   1.083       .  S
C2355      C2364   1.377       .  A
C2355      C2356   1.386       .  A
C2356      S2362   1.710       .  A
C2356      C2357   1.407   1_554  A
C2357      C2358   1.406       .  A
C2357      H2366   1.083       .  S
C2358      C2361   1.379       .  A
S2359      C2360   1.726       .  A
C2360      C2361   1.390       .  A
C2361      H2367   1.083       .  S
S2362      C2363   1.727       .  A
C2363      C2364   1.389       .  A
C2364      H2368   1.083       .  S
C2369      S2375   1.703       .  A
C2369      C2374   1.387       .  A
C2369      C2370   1.402       .  A
C2370      C2371   1.401       .  A
C2370      H2381   1.083       .  S
C2371      C2380   1.374       .  A
C2371      C2372   1.387       .  A
C2372      S2378   1.703       .  A
C2372      C2373   1.403       .  A
C2373      C2374   1.402       .  A
C2373      H2382   1.083       .  S
C2374      C2377   1.375       .  A
S2375      C2376   1.725       .  A
C2376      C2377   1.387       .  A
C2377      H2383   1.083       .  S
S2378      C2379   1.725       .  A
C2379      C2380   1.386       .  A
C2380      H2384   1.083       .  S
C2385      S2391   1.719       .  A
C2385      C2390   1.386       .  A
C2385      C2386   1.407       .  A
C2386      C2387   1.409       .  A
C2386      H2397   1.083       .  S
C2387      C2396   1.374       .  A
C2387      C2388   1.387       .  A
C2388      S2394   1.704       .  A
C2388      C2389   1.395       .  A
C2389      C2390   1.398       .  A
C2389      H2398   1.083       .  S
C2390      C2393   1.362       .  A
S2391      C2392   1.725       .  A
C2392      C2393   1.383       .  A
C2393      H2399   1.084       .  S
S2394      C2395   1.717       .  A
C2395      C2396   1.390       .  A
C2396      H2400   1.083       .  S
C2401      S2407   1.707       .  A
C2401      C2406   1.387       .  A
C2401      C2402   1.397       .  A
C2402      C2403   1.400       .  A
C2402      H2413   1.083       .  S
C2403      C2412   1.363       .  A
C2403      C2404   1.387       .  A
C2404      S2410   1.716       .  A
C2404      C2405   1.404       .  A
C2405      C2406   1.406       .  A
C2405      H2414   1.083       .  S
C2406      C2409   1.370       .  A
S2407      C2408   1.719       .  A
C2408      C2409   1.388       .  A
C2409      H2415   1.083       .  S
S2410      C2411   1.723       .  A
C2411      C2412   1.383       .  A
C2412      H2416   1.084       .  S
C2417      S2423   1.711       .  A
C2417      C2422   1.386       .  A
C2417      C2418   1.402   1_655  A
C2418      C2419   1.404       .  A
C2418      H2429   1.083       .  S
C2419      C2428   1.371       .  A
C2419      C2420   1.386       .  A
C2420      S2426   1.717       .  A
C2420      C2421   1.407       .  A
C2421      C2422   1.408   1_455  A
C2421      H2430   1.083       .  S
C2422      C2425   1.376       .  A
S2423      C2424   1.724       .  A
C2424      C2425   1.392       .  A
C2425      H2431   1.083       .  S
S2426      C2427   1.727       .  A
C2427      C2428   1.389       .  A
C2428      H2432   1.083       .  S
C2433      S2439   1.715       .  A
C2433      C2438   1.386       .  A
C2433      C2434   1.404       .  A
C2434      C2435   1.406       .  A
C2434      H2445   1.083       .  S
C2435      C2444   1.372       .  A
C2435      C2436   1.387       .  A
C2436      S2442   1.708       .  A
C2436      C2437   1.400       .  A
C2437      C2438   1.402       .  A
C2437      H2446   1.083       .  S
C2438      C2441   1.367       .  A
S2439      C2440   1.723       .  A
C2440      C2441   1.388       .  A
C2441      H2447   1.083       .  S
S2442      C2443   1.719       .  A
C2443      C2444   1.386       .  A
C2444      H2448   1.083       .  S
C2449      S2455   1.708       .  A
C2449      C2454   1.387       .  A
C2449      C2450   1.403       .  A
C2450      C2451   1.403       .  A
C2450      H2461   1.083       .  S
C2451      C2460   1.372       .  A
C2451      C2452   1.387       .  A
C2452      S2458   1.707       .  A
C2452      C2453   1.402       .  A
C2453      C2454   1.403       .  A
C2453      H2462   1.083       .  S
C2454      C2457   1.372       .  A
S2455      C2456   1.724       .  A
C2456      C2457   1.387       .  A
C2457      H2463   1.083       .  S
S2458      C2459   1.723       .  A
C2459      C2460   1.386       .  A
C2460      H2464   1.083       .  S
C2465      S2471   1.705       .  A
C2465      C2470   1.387       .  A
C2465      C2466   1.397       .  A
C2466      C2467   1.399       .  A
C2466      H2477   1.083       .  S
C2467      C2476   1.364       .  A
C2467      C2468   1.386       .  A
C2468      S2474   1.717       .  A
C2468      C2469   1.406       .  A
C2469      C2470   1.408       .  A
C2469      H2478   1.083       .  S
C2470      C2473   1.374       .  A
S2471      C2472   1.719       .  A
C2472      C2473   1.389       .  A
C2473      H2479   1.083       .  S
S2474      C2475   1.725       .  A
C2475      C2476   1.383       .  A
C2476      H2480   1.084       .  S
C2481      S2487   1.708       .  A
C2481      C2486   1.387       .  A
C2481      C2482   1.400       .  A
C2482      C2483   1.402       .  A
C2482      H2493   1.083       .  S
C2483      C2492   1.367       .  A
C2483      C2484   1.386       .  A
C2484      S2490   1.719       .  A
C2484      C2485   1.406       .  A
C2485      C2486   1.408       .  A
C2485      H2494   1.083       .  S
C2486      C2489   1.375       .  A
S2487      C2488   1.721       .  A
C2488      C2489   1.389       .  A
C2489      H2495   1.083       .  S
S2490      C2491   1.724       .  A
C2491      C2492   1.387       .  A
C2492      H2496   1.084       .  S
C2497      S2503   1.702       .  A
C2497      C2502   1.387       .  A
C2497      C2498   1.399       .  A
C2498      C2499   1.400       .  A
C2498      H2509   1.083       .  S
C2499      C2508   1.368       .  A
C2499      C2500   1.387       .  A
C2500      S2506   1.706       .  A
C2500      C2501   1.401       .  A
C2501      C2502   1.402       .  A
C2501      H2510   1.083       .  S
C2502      C2505   1.371       .  A
S2503      C2504   1.723       .  A
C2504      C2505   1.385       .  A
C2505      H2511   1.083       .  S
S2506      C2507   1.723       .  A
C2507      C2508   1.385       .  A
C2508      H2512   1.083       .  S
C2513      S2519   1.707       .  A
C2513      C2518   1.387       .  A
C2513      C2514   1.402       .  A
C2514      C2515   1.403       .  A
C2514      H2525   1.083       .  S
C2515      C2524   1.373       .  A
C2515      C2516   1.387       .  A
C2516      S2522   1.711       .  A
C2516      C2517   1.406       .  A
C2517      C2518   1.406       .  A
C2517      H2526   1.083       .  S
C2518      C2521   1.376       .  A
S2519      C2520   1.724       .  A
C2520      C2521   1.389       .  A
C2521      H2527   1.083       .  S
S2522      C2523   1.727       .  A
C2523      C2524   1.387       .  A
C2524      H2528   1.083       .  S
C2529      S2535   1.710       .  A
C2529      C2534   1.387       .  A
C2529      C2530   1.407       .  A
C2530      C2531   1.406       .  A
C2530      H2541   1.083       .  S
C2531      C2540   1.379       .  A
C2531      C2532   1.388       .  A
C2532      S2538   1.697       .  A
C2532      C2533   1.398       .  A
C2533      C2534   1.398       .  A
C2533      H2542   1.083   1_565  S
C2534      C2537   1.370       .  A
S2535      C2536   1.724       .  A
C2536      C2537   1.383       .  A
C2537      H2543   1.083   1_565  S
S2538      C2539   1.721       .  A
C2539      C2540   1.389       .  A
C2540      H2544   1.083       .  S
C2545      S2551   1.711       .  A
C2545      C2550   1.387       .  A
C2545      C2546   1.402       .  A
C2546      C2547   1.404       .  A
C2546      H2557   1.083       .  S
C2547      C2556   1.368       .  A
C2547      C2548   1.387       .  A
C2548      S2554   1.705       .  A
C2548      C2549   1.397       .  A
C2549      C2550   1.399       .  A
C2549      H2558   1.083       .  S
C2550      C2553   1.364       .  A
S2551      C2552   1.722       .  A
C2552      C2553   1.384       .  A
C2553      H2559   1.084       .  S
S2554      C2555   1.720       .  A
C2555      C2556   1.387       .  A
C2556      H2560   1.083       .  S
C2561      S2567   1.705       .  A
C2561      C2566   1.387       .  A
C2561      C2562   1.397       .  A
C2562      C2563   1.399       .  A
C2562      H2573   1.083       .  S
C2563      C2572   1.366       .  A
C2563      C2564   1.386       .  A
C2564      S2570   1.719       .  A
C2564      C2565   1.408       .  A
C2565      C2566   1.409       .  A
C2565      H2574   1.083       .  S
C2566      C2569   1.375       .  A
S2567      C2568   1.719       .  A
C2568      C2569   1.390       .  A
C2569      H2575   1.083       .  S
S2570      C2571   1.726       .  A
C2571      C2572   1.384       .  A
C2572      H2576   1.084       .  S
C2577      S2583   1.705       .  A
C2577      C2582   1.387       .  A
C2577      C2578   1.403       .  A
C2578      C2579   1.402       .  A
C2578      H2589   1.083       .  S
C2579      C2588   1.373       .  A
C2579      C2580   1.388       .  A
C2580      S2586   1.702       .  A
C2580      C2581   1.400       .  A
C2581      C2582   1.400       .  A
C2581      H2590   1.083       .  S
C2582      C2585   1.371       .  A
S2583      C2584   1.725       .  A
C2584      C2585   1.385       .  A
C2585      H2591   1.083       .  S
S2586      C2587   1.722       .  A
C2587      C2588   1.386       .  A
C2588      H2592   1.083       .  S
C2593      S2599   1.709       .  A
C2593      C2598   1.387       .  A
C2593      C2594   1.401       .  A
C2594      C2595   1.403       .  A
C2594      H2605   1.083       .  S
C2595      C2604   1.368       .  A
C2595      C2596   1.387       .  A
C2596      S2602   1.718       .  A
C2596      C2597   1.406       .  A
C2597      C2598   1.407       .  A
C2597      H2606   1.083       .  S
C2598      C2601   1.374       .  A
S2599      C2600   1.723       .  A
C2600      C2601   1.391       .  A
C2601      H2607   1.083       .  S
S2602      C2603   1.722       .  A
C2603      C2604   1.385       .  A
C2604      H2608   1.084       .  S
C2609      S2615   1.710       .  A
C2609      C2614   1.387       .  A
C2609      C2610   1.403       .  A
C2610      C2611   1.405       .  A
C2610      H2621   1.083       .  S
C2611      C2620   1.370       .  A
C2611      C2612   1.387       .  A
C2612      S2618   1.703       .  A
C2612      C2613   1.397       .  A
C2613      C2614   1.399       .  A
C2613      H2622   1.083       .  S
C2614      C2617   1.365       .  A
S2615      C2616   1.724       .  A
C2616      C2617   1.383       .  A
C2617      H2623   1.083       .  S
S2618      C2619   1.720       .  A
C2619      C2620   1.388       .  A
C2620      H2624   1.083       .  S
C2625      S2631   1.707       .  A
C2625      C2630   1.387       .  A
C2625      C2626   1.403       .  A
C2626      C2627   1.403       .  A
C2626      H2637   1.083       .  S
C2627      C2636   1.374       .  A
C2627      C2628   1.388       .  A
C2628      S2634   1.704       .  A
C2628      C2629   1.402       .  A
C2629      C2630   1.401       .  A
C2629      H2638   1.083       .  S
C2630      C2633   1.372       .  A
S2631      C2632   1.723       .  A
C2632      C2633   1.385       .  A
C2633      H2639   1.083       .  S
S2634      C2635   1.723       .  A
C2635      C2636   1.386       .  A
C2636      H2640   1.083       .  S
C2641      S2647   1.708       .  A
C2641      C2646   1.387       .  A
C2641      C2642   1.400       .  A
C2642      C2643   1.402       .  A
C2642      H2653   1.083       .  S
C2643      C2652   1.366       .  A
C2643      C2644   1.387       .  A
C2644      S2650   1.705       .  A
C2644      C2645   1.397       .  A
C2645      C2646   1.400       .  A
C2645      H2654   1.083       .  S
C2646      C2649   1.364       .  A
S2647      C2648   1.722       .  A
C2648      C2649   1.385       .  A
C2649      H2655   1.083       .  S
S2650      C2651   1.719       .  A
C2651      C2652   1.385       .  A
C2652      H2656   1.083       .  S
C2657      S2663   1.712       .  A
C2657      C2662   1.387       .  A
C2657      C2658   1.401       .  A
C2658      C2659   1.403       .  A
C2658      H2669   1.083       .  S
C2659      C2668   1.369       .  A
C2659      C2660   1.387       .  A
C2660      S2666   1.708       .  A
C2660      C2661   1.401       .  A
C2661      C2662   1.403       .  A
C2661      H2670   1.083       .  S
C2662      C2665   1.367       .  A
S2663      C2664   1.719       .  A
C2664      C2665   1.386       .  A
C2665      H2671   1.084       .  S
S2666      C2667   1.722       .  A
C2667      C2668   1.385       .  A
C2668      H2672   1.083       .  S
C2673      S2679   1.706       .  A
C2673      C2678   1.387       .  A
C2673      C2674   1.398       .  A
C2674      C2675   1.400       .  A
C2674      H2685   1.083       .  S
C2675      C2684   1.366       .  A
C2675      C2676   1.386       .  A
C2676      S2682   1.715       .  A
C2676      C2677   1.405       .  A
C2677      C2678   1.406       .  A
C2677      H2686   1.083       .  S
C2678      C2681   1.373       .  A
S2679      C2680   1.719       .  A
C2680      C2681   1.388       .  A
C2681      H2687   1.083       .  S
S2682      C2683   1.724       .  A
C2683      C2684   1.385       .  A
C2684      H2688   1.084       .  S
C2689      S2695   1.710       .  A
C2689      C2694   1.387       .  A
C2689      C2690   1.399       .  A
C2690      C2691   1.402       .  A
C2690      H2701   1.083       .  S
C2691      C2700   1.365       .  A
C2691      C2692   1.387       .  A
C2692      S2698   1.711       .  A
C2692      C2693   1.400       .  A
C2693      C2694   1.402       .  A
C2693      H2702   1.083       .  S
C2694      C2697   1.365       .  A
S2695      C2696   1.722       .  A
C2696      C2697   1.386       .  A
C2697      H2703   1.083       .  S
S2698      C2699   1.722       .  A
C2699      C2700   1.386       .  A
C2700      H2704   1.083       .  S
C2705      S2711   1.709       .  A
C2705      C2710   1.387       .  A
C2705      C2706   1.401       .  A
C2706      C2707   1.403       .  A
C2706      H2717   1.083   1_545  S
C2707      C2716   1.369       .  A
C2707      C2708   1.386       .  A
C2708      S2714   1.713       .  A
C2708      C2709   1.404       .  A
C2709      C2710   1.405       .  A
C2709      H2718   1.083       .  S
C2710      C2713   1.372       .  A
S2711      C2712   1.722       .  A
C2712      C2713   1.389       .  A
C2713      H2719   1.083       .  S
S2714      C2715   1.725       .  A
C2715      C2716   1.388       .  A
C2716      H2720   1.083   1_545  S
C2721      S2727   1.698       .  A
C2721      C2726   1.388       .  A
C2721      C2722   1.400       .  A
C2722      C2723   1.399       .  A
C2722      H2733   1.083       .  S
C2723      C2732   1.371       .  A
C2723      C2724   1.388       .  A
C2724      S2730   1.699       .  A
C2724      C2725   1.400       .  A
C2725      C2726   1.399       .  A
C2725      H2734   1.083       .  S
C2726      C2729   1.371       .  A
S2727      C2728   1.723       .  A
C2728      C2729   1.383       .  A
C2729      H2735   1.083       .  S
S2730      C2731   1.723       .  A
C2731      C2732   1.384       .  A
C2732      H2736   1.083       .  S
C2737      S2743   1.719       .  A
C2737      C2742   1.386       .  A
C2737      C2738   1.408       .  A
C2738      C2739   1.410       .  A
C2738      H2749   1.083       .  S
C2739      C2748   1.377       .  A
C2739      C2740   1.387       .  A
C2740      S2746   1.708       .  A
C2740      C2741   1.400       .  A
C2741      C2742   1.402       .  A
C2741      H2750   1.083       .  S
C2742      C2745   1.368       .  A
S2743      C2744   1.724       .  A
C2744      C2745   1.386       .  A
C2745      H2751   1.084       .  S
S2746      C2747   1.722       .  A
C2747      C2748   1.392       .  A
C2748      H2752   1.083       .  S
C2753      S2759   1.706       .  A
C2753      C2758   1.387       .  A
C2753      C2754   1.404       .  A
C2754      C2755   1.404       .  A
C2754      H2765   1.083       .  S
C2755      C2764   1.376       .  A
C2755      C2756   1.387       .  A
C2756      S2762   1.701       .  A
C2756      C2757   1.401       .  A
C2757      C2758   1.400       .  A
C2757      H2766   1.083       .  S
C2758      C2761   1.373       .  A
S2759      C2760   1.725       .  A
C2760      C2761   1.385       .  A
C2761      H2767   1.083       .  S
S2762      C2763   1.724       .  A
C2763      C2764   1.388       .  A
C2764      H2768   1.083       .  S
C2769      S2775   1.708       .  A
C2769      C2774   1.387       .  A
C2769      C2770   1.405       .  A
C2770      C2771   1.404       .  A
C2770      H2781   1.083       .  S
C2771      C2780   1.375       .  A
C2771      C2772   1.389       .  A
C2772      S2778   1.695       .  A
C2772      C2773   1.396       .  A
C2773      C2774   1.395       .  A
C2773      H2782   1.083       .  S
C2774      C2777   1.365       .  A
S2775      C2776   1.725       .  A
C2776      C2777   1.382       .  A
C2777      H2783   1.083       .  S
S2778      C2779   1.718       .  A
C2779      C2780   1.384       .  A
C2780      H2784   1.083       .  S
C2785      S2791   1.712       .  A
C2785      C2790   1.386       .  A
C2785      C2786   1.402       .  A
C2786      C2787   1.404       .  A
C2786      H2797   1.083       .  S
C2787      C2796   1.369       .  A
C2787      C2788   1.387       .  A
C2788      S2794   1.709       .  A
C2788      C2789   1.401       .  A
C2789      C2790   1.403       .  A
C2789      H2798   1.083       .  S
C2790      C2793   1.369       .  A
S2791      C2792   1.723       .  A
C2792      C2793   1.387       .  A
C2793      H2799   1.083       .  S
S2794      C2795   1.722       .  A
C2795      C2796   1.388       .  A
C2796      H2800   1.083       .  S
C2801      S2807   1.706   1_545  A
C2801      C2806   1.387       .  A
C2801      C2802   1.405       .  A
C2802      C2803   1.404       .  A
C2802      H2813   1.083   1_545  S
C2803      C2812   1.378       .  A
C2803      C2804   1.386       .  A
C2804      S2810   1.709       .  A
C2804      C2805   1.408       .  A
C2805      C2806   1.407       .  A
C2805      H2814   1.083       .  S
C2806      C2809   1.381       .  A
S2807      C2808   1.726       .  A
C2808      C2809   1.390   1_565  A
C2809      H2815   1.083       .  S
S2810      C2811   1.728       .  A
C2811      C2812   1.389       .  A
C2812      H2816   1.083       .  S
C2817      S2823   1.708       .  A
C2817      C2822   1.387       .  A
C2817      C2818   1.399       .  A
C2818      C2819   1.401       .  A
C2818      H2829   1.084       .  S
C2819      C2828   1.367       .  A
C2819      C2820   1.387       .  A
C2820      S2826   1.720       .  A
C2820      C2821   1.408       .  A
C2821      C2822   1.410       .  A
C2821      H2830   1.083       .  S
C2822      C2825   1.376       .  A
S2823      C2824   1.722       .  A
C2824      C2825   1.393       .  A
C2825      H2831   1.083       .  S
S2826      C2827   1.724       .  A
C2827      C2828   1.383       .  A
C2828      H2832   1.084       .  S
C2833      S2839   1.705       .  A
C2833      C2838   1.387       .  A
C2833      C2834   1.403       .  A
C2834      C2835   1.403       .  A
C2834      H2845   1.083       .  S
C2835      C2844   1.374       .  A
C2835      C2836   1.387       .  A
C2836      S2842   1.703       .  A
C2836      C2837   1.401       .  A
C2837      C2838   1.401       .  A
C2837      H2846   1.083       .  S
C2838      C2841   1.372       .  A
S2839      C2840   1.725       .  A
C2840      C2841   1.385       .  A
C2841      H2847   1.083       .  S
S2842      C2843   1.724       .  A
C2843      C2844   1.387       .  A
C2844      H2848   1.083       .  S
C2849      S2855   1.719       .  A
C2849      C2854   1.386       .  A
C2849      C2850   1.409       .  A
C2850      C2851   1.410       .  A
C2850      H2861   1.083       .  S
C2851      C2860   1.378       .  A
C2851      C2852   1.387       .  A
C2852      S2858   1.709       .  A
C2852      C2853   1.402       .  A
C2853      C2854   1.403       .  A
C2853      H2862   1.083       .  S
C2854      C2857   1.371       .  A
S2855      C2856   1.726       .  A
C2856      C2857   1.388       .  A
C2857      H2863   1.083       .  S
S2858      C2859   1.722       .  A
C2859      C2860   1.392       .  A
C2860      H2864   1.083       .  S
C2865      S2871   1.708       .  A
C2865      C2870   1.387       .  A
C2865      C2866   1.401       .  A
C2866      C2867   1.403       .  A
C2866      H2877   1.083       .  S
C2867      C2876   1.369       .  A
C2867      C2868   1.387       .  A
C2868      S2874   1.702       .  A
C2868      C2869   1.396       .  A
C2869      C2870   1.398       .  A
C2869      H2878   1.083       .  S
C2870      C2873   1.364       .  A
S2871      C2872   1.722       .  A
C2872      C2873   1.383       .  A
C2873      H2879   1.083       .  S
S2874      C2875   1.719       .  A
C2875      C2876   1.387       .  A
C2876      H2880   1.083       .  S
C2881      S2887   1.700       .  A
C2881      C2886   1.388       .  A
C2881      C2882   1.393       .  A
C2882      C2883   1.395       .  A
C2882      H2893   1.084       .  S
C2883      C2892   1.361       .  A
C2883      C2884   1.387       .  A
C2884      S2890   1.715       .  A
C2884      C2885   1.406       .  A
C2885      C2886   1.408       .  A
C2885      H2894   1.083       .  S
C2886      C2889   1.374       .  A
S2887      C2888   1.715       .  A
C2888      C2889   1.389       .  A
C2889      H2895   1.083       .  S
S2890      C2891   1.725       .  A
C2891      C2892   1.381       .  A
C2892      H2896   1.084       .  S
C2897      S2903   1.720       .  A
C2897      C2902   1.386       .  A
C2897      C2898   1.407       .  A
C2898      C2899   1.409       .  A
C2898      H2909   1.082       .  S
C2899      C2908   1.376       .  A
C2899      C2900   1.387       .  A
C2900      S2906   1.702       .  A
C2900      C2901   1.395       .  A
C2901      C2902   1.398       .  A
C2901      H2910   1.083       .  S
C2902      C2905   1.362       .  A
S2903      C2904   1.724       .  A
C2904      C2905   1.382       .  A
C2905      H2911   1.084       .  S
S2906      C2907   1.720       .  A
C2907      C2908   1.390       .  A
C2908      H2912   1.083       .  S
C2913      S2919   1.702       .  A
C2913      C2918   1.387       .  A
C2913      C2914   1.402       .  A
C2914      C2915   1.401       .  A
C2914      H2925   1.083       .  S
C2915      C2924   1.374       .  A
C2915      C2916   1.387       .  A
C2916      S2922   1.705       .  A
C2916      C2917   1.404       .  A
C2917      C2918   1.403       .  A
C2917      H2926   1.083       .  S
C2918      C2921   1.376       .  A
S2919      C2920   1.724       .  A
C2920      C2921   1.387       .  A
C2921      H2927   1.083       .  S
S2922      C2923   1.726       .  A
C2923      C2924   1.386       .  A
C2924      H2928   1.083       .  S
C2929      S2935   1.706       .  A
C2929      C2934   1.387   1_556  A
C2929      C2930   1.404       .  A
C2930      C2931   1.403   1_556  A
C2930      H2941   1.083       .  S
C2931      C2940   1.377       .  A
C2931      C2932   1.386       .  A
C2932      S2938   1.710       .  A
C2932      C2933   1.407       .  A
C2933      C2934   1.406       .  A
C2933      H2942   1.083       .  S
C2934      C2937   1.379       .  A
S2935      C2936   1.724       .  A
C2936      C2937   1.391   1_556  A
C2937      H2943   1.083       .  S
S2938      C2939   1.728       .  A
C2939      C2940   1.389       .  A
C2940      H2944   1.083       .  S
C2945      S2951   1.702       .  A
C2945      C2950   1.387       .  A
C2945      C2946   1.400       .  A
C2946      C2947   1.400       .  A
C2946      H2957   1.083       .  S
C2947      C2956   1.372       .  A
C2947      C2948   1.387       .  A
C2948      S2954   1.712       .  A
C2948      C2949   1.408       .  A
C2949      C2950   1.408       .  A
C2949      H2958   1.083       .  S
C2950      C2953   1.379       .  A
S2951      C2952   1.722       .  A
C2952      C2953   1.391       .  A
C2953      H2959   1.083       .  S
S2954      C2955   1.728       .  A
C2955      C2956   1.385       .  A
C2956      H2960   1.083       .  S
C2961      S2967   1.718       .  A
C2961      C2966   1.386       .  A
C2961      C2962   1.406       .  A
C2962      C2963   1.408       .  A
C2962      H2973   1.083       .  S
C2963      C2972   1.374       .  A
C2963      C2964   1.387       .  A
C2964      S2970   1.706       .  A
C2964      C2965   1.398       .  A
C2965      C2966   1.401       .  A
C2965      H2974   1.083       .  S
C2966      C2969   1.366       .  A
S2967      C2968   1.724       .  A
C2968      C2969   1.386       .  A
C2969      H2975   1.084       .  S
S2970      C2971   1.719       .  A
C2971      C2972   1.389       .  A
C2972      H2976   1.083       .  S
C2977      S2983   1.702       .  A
C2977      C2982   1.387       .  A
C2977      C2978   1.400       .  A
C2978      C2979   1.399       .  A
C2978      H2989   1.083       .  S
C2979      C2988   1.369       .  A
C2979      C2980   1.387       .  A
C2980      S2986   1.704       .  A
C2980      C2981   1.401       .  A
C2981      C2982   1.401       .  A
C2981      H2990   1.083       .  S
C2982      C2985   1.371       .  A
S2983      C2984   1.723       .  A
C2984      C2985   1.385       .  A
C2985      H2991   1.083       .  S
S2986      C2987   1.722       .  A
C2987      C2988   1.383       .  A
C2988      H2992   1.083       .  S
C2993      S2999   1.718       .  A
C2993      C2998   1.387       .  A
C2993      C2994   1.406       .  A
C2994      C2995   1.408       .  A
C2994      H3005   1.083       .  S
C2995      C3004   1.374       .  A
C2995      C2996   1.387       .  A
C2996      S3002   1.706       .  A
C2996      C2997   1.399       .  A
C2997      C2998   1.400       .  A
C2997      H3006   1.083       .  S
C2998      C3001   1.366       .  A
S2999      C3000   1.723       .  A
C3000      C3001   1.383       .  A
C3001      H3007   1.084       .  S
S3002      C3003   1.721       .  A
C3003      C3004   1.390       .  A
C3004      H3008   1.083       .  S
C3009      S3015   1.701       .  A
C3009      C3014   1.387       .  A
C3009      C3010   1.396       .  A
C3010      C3011   1.398       .  A
C3010      H3021   1.083       .  S
C3011      C3020   1.364       .  A
C3011      C3012   1.386       .  A
C3012      S3018   1.712       .  A
C3012      C3013   1.404       .  A
C3013      C3014   1.406       .  A
C3013      H3022   1.083       .  S
C3014      C3017   1.372       .  A
S3015      C3016   1.719       .  A
C3016      C3017   1.389       .  A
C3017      H3023   1.083       .  S
S3018      C3019   1.724       .  A
C3019      C3020   1.384       .  A
C3020      H3024   1.083       .  S
C3025      S3031   1.716       .  A
C3025      C3030   1.386       .  A
C3025      C3026   1.407       .  A
C3026      C3027   1.408       .  A
C3026      H3037   1.083       .  S
C3027      C3036   1.374       .  A
C3027      C3028   1.387       .  A
C3028      S3034   1.700       .  A
C3028      C3029   1.394       .  A
C3029      C3030   1.395       .  A
C3029      H3038   1.083       .  S
C3030      C3033   1.361       .  A
S3031      C3032   1.725       .  A
C3032      C3033   1.380       .  A
C3033      H3039   1.084       .  S
S3034      C3035   1.716       .  A
C3035      C3036   1.390       .  A
C3036      H3040   1.083       .  S
C3041      S3047   1.703       .  A
C3041      C3046   1.387       .  A
C3041      C3042   1.401       .  A
C3042      C3043   1.400       .  A
C3042      H3053   1.083       .  S
C3043      C3052   1.372       .  A
C3043      C3044   1.387       .  A
C3044      S3050   1.703       .  A
C3044      C3045   1.402       .  A
C3045      C3046   1.402       .  A
C3045      H3054   1.083       .  S
C3046      C3049   1.372       .  A
S3047      C3048   1.722       .  A
C3048      C3049   1.386       .  A
C3049      H3055   1.083       .  S
S3050      C3051   1.725       .  A
C3051      C3052   1.385       .  A
C3052      H3056   1.083       .  S
C3057      S3063   1.714       .  A
C3057      C3062   1.386       .  A
C3057      C3058   1.405   1_554  A
C3058      C3059   1.406       .  A
C3058      H3069   1.083       .  S
C3059      C3068   1.375       .  A
C3059      C3060   1.386   1_556  A
C3060      S3066   1.714       .  A
C3060      C3061   1.405       .  A
C3061      C3062   1.407       .  A
C3061      H3070   1.083       .  S
C3062      C3065   1.374       .  A
S3063      C3064   1.724       .  A
C3064      C3065   1.391       .  A
C3065      H3071   1.083       .  S
S3066      C3067   1.726   1_554  A
C3067      C3068   1.391       .  A
C3068      H3072   1.083       .  S
C3073      S3079   1.719       .  A
C3073      C3078   1.386       .  A
C3073      C3074   1.408       .  A
C3074      C3075   1.410       .  A
C3074      H3085   1.083       .  S
C3075      C3084   1.376       .  A
C3075      C3076   1.388       .  A
C3076      S3082   1.703       .  A
C3076      C3077   1.395       .  A
C3077      C3078   1.397       .  A
C3077      H3086   1.083       .  S
C3078      C3081   1.362       .  A
S3079      C3080   1.726       .  A
C3080      C3081   1.383       .  A
C3081      H3087   1.084       .  S
S3082      C3083   1.717       .  A
C3083      C3084   1.391       .  A
C3084      H3088   1.083       .  S
C3089      S3095   1.706       .  A
C3089      C3094   1.387       .  A
C3089      C3090   1.399       .  A
C3090      C3091   1.401       .  A
C3090      H3101   1.083       .  S
C3091      C3100   1.368       .  A
C3091      C3092   1.387       .  A
C3092      S3098   1.711       .  A
C3092      C3093   1.403       .  A
C3093      C3094   1.404       .  A
C3093      H3102   1.083       .  S
C3094      C3097   1.371       .  A
S3095      C3096   1.721       .  A
C3096      C3097   1.388       .  A
C3097      H3103   1.083       .  S
S3098      C3099   1.725       .  A
C3099      C3100   1.385       .  A
C3100      H3104   1.083       .  S
C3105      S3111   1.712       .  A
C3105      C3110   1.387       .  A
C3105      C3106   1.404       .  A
C3106      C3107   1.405       .  A
C3106      H3117   1.083       .  S
C3107      C3116   1.373       .  A
C3107      C3108   1.388       .  A
C3108      S3114   1.705       .  A
C3108      C3109   1.399       .  A
C3109      C3110   1.400       .  A
C3109      H3118   1.083       .  S
C3110      C3113   1.367       .  A
S3111      C3112   1.723       .  A
C3112      C3113   1.385       .  A
C3113      H3119   1.084       .  S
S3114      C3115   1.719       .  A
C3115      C3116   1.386       .  A
C3116      H3120   1.083       .  S
C3121      S3127   1.706       .  A
C3121      C3126   1.387       .  A
C3121      C3122   1.400       .  A
C3122      C3123   1.402       .  A
C3122      H3133   1.084       .  S
C3123      C3132   1.367       .  A
C3123      C3124   1.387       .  A
C3124      S3130   1.717       .  A
C3124      C3125   1.405       .  A
C3125      C3126   1.407       .  A
C3125      H3134   1.083       .  S
C3126      C3129   1.375       .  A
S3127      C3128   1.722       .  A
C3128      C3129   1.389       .  A
C3129      H3135   1.083       .  S
S3130      C3131   1.722       .  A
C3131      C3132   1.386       .  A
C3132      H3136   1.084   1_565  S
C3137      S3143   1.709       .  A
C3137      C3142   1.387       .  A
C3137      C3138   1.400       .  A
C3138      C3139   1.402       .  A
C3138      H3149   1.083       .  S
C3139      C3148   1.367       .  A
C3139      C3140   1.386       .  A
C3140      S3146   1.713       .  A
C3140      C3141   1.403       .  A
C3141      C3142   1.405       .  A
C3141      H3150   1.083       .  S
C3142      C3145   1.370       .  A
S3143      C3144   1.722       .  A
C3144      C3145   1.389       .  A
C3145      H3151   1.083       .  S
S3146      C3147   1.724       .  A
C3147      C3148   1.387       .  A
C3148      H3152   1.083       .  S
C3153      S3159   1.713       .  A
C3153      C3158   1.386       .  A
C3153      C3154   1.406       .  A
C3154      C3155   1.407       .  A
C3154      H3165   1.083       .  S
C3155      C3164   1.375       .  A
C3155      C3156   1.386       .  A
C3156      S3162   1.710       .  A
C3156      C3157   1.403       .  A
C3157      C3158   1.404       .  A
C3157      H3166   1.083       .  S
C3158      C3161   1.373       .  A
S3159      C3160   1.726       .  A
C3160      C3161   1.389       .  A
C3161      H3167   1.083       .  S
S3162      C3163   1.723       .  A
C3163      C3164   1.391       .  A
C3164      H3168   1.083       .  S
C3169      S3175   1.708       .  A
C3169      C3174   1.387       .  A
C3169      C3170   1.403       .  A
C3170      C3171   1.403       .  A
C3170      H3181   1.083       .  S
C3171      C3180   1.373       .  A
C3171      C3172   1.387       .  A
C3172      S3178   1.706       .  A
C3172      C3173   1.402       .  A
C3173      C3174   1.403       .  A
C3173      H3182   1.083       .  S
C3174      C3177   1.372       .  A
S3175      C3176   1.724       .  A
C3176      C3177   1.387       .  A
C3177      H3183   1.083       .  S
S3178      C3179   1.724       .  A
C3179      C3180   1.387       .  A
C3180      H3184   1.083       .  S
C3185      S3191   1.710       .  A
C3185      C3190   1.387       .  A
C3185      C3186   1.401       .  A
C3186      C3187   1.403       .  A
C3186      H3197   1.083       .  S
C3187      C3196   1.368       .  A
C3187      C3188   1.387       .  A
C3188      S3194   1.709       .  A
C3188      C3189   1.401       .  A
C3189      C3190   1.403       .  A
C3189      H3198   1.083   1_545  S
C3190      C3193   1.367   1_545  A
S3191      C3192   1.723       .  A
C3192      C3193   1.386   1_545  A
C3193      H3199   1.083       .  S
S3194      C3195   1.723       .  A
C3195      C3196   1.387       .  A
C3196      H3200   1.083       .  S
C3201      S3207   1.718       .  A
C3201      C3206   1.387       .  A
C3201      C3202   1.408       .  A
C3202      C3203   1.409       .  A
C3202      H3213   1.083       .  S
C3203      C3212   1.377       .  A
C3203      C3204   1.387       .  A
C3204      S3210   1.702       .  A
C3204      C3205   1.397       .  A
C3205      C3206   1.398       .  A
C3205      H3214   1.083       .  S
C3206      C3209   1.365       .  A
S3207      C3208   1.724       .  A
C3208      C3209   1.382       .  A
C3209      H3215   1.084       .  S
S3210      C3211   1.720       .  A
C3211      C3212   1.391       .  A
C3212      H3216   1.083       .  S
C3217      S3223   1.708       .  A
C3217      C3222   1.387       .  A
C3217      C3218   1.402       .  A
C3218      C3219   1.403       .  A
C3218      H3229   1.083       .  S
C3219      C3228   1.370       .  A
C3219      C3220   1.386       .  A
C3220      S3226   1.713       .  A
C3220      C3221   1.404       .  A
C3221      C3222   1.405       .  A
C3221      H3230   1.083       .  S
C3222      C3225   1.373       .  A
S3223      C3224   1.724       .  A
C3224      C3225   1.389       .  A
C3225      H3231   1.083       .  S
S3226      C3227   1.723       .  A
C3227      C3228   1.388       .  A
C3228      H3232   1.083       .  S
C3233      S3239   1.709       .  A
C3233      C3238   1.387       .  A
C3233      C3234   1.404       .  A
C3234      C3235   1.405       .  A
C3234      H3245   1.083       .  S
C3235      C3244   1.376       .  A
C3235      C3236   1.387       .  A
C3236      S3242   1.706       .  A
C3236      C3237   1.403       .  A
C3237      C3238   1.403       .  A
C3237      H3246   1.083       .  S
C3238      C3241   1.373       .  A
S3239      C3240   1.725       .  A
C3240      C3241   1.388       .  A
C3241      H3247   1.083       .  S
S3242      C3243   1.725       .  A
C3243      C3244   1.388       .  A
C3244      H3248   1.083       .  S
C3249      S3255   1.711       .  A
C3249      C3254   1.386       .  A
C3249      C3250   1.403       .  A
C3250      C3251   1.405       .  A
C3250      H3261   1.083       .  S
C3251      C3260   1.372       .  A
C3251      C3252   1.386       .  A
C3252      S3258   1.709       .  A
C3252      C3253   1.402       .  A
C3253      C3254   1.403       .  A
C3253      H3262   1.083       .  S
C3254      C3257   1.370       .  A
S3255      C3256   1.724       .  A
C3256      C3257   1.388       .  A
C3257      H3263   1.083       .  S
S3258      C3259   1.723       .  A
C3259      C3260   1.389       .  A
C3260      H3264   1.083       .  S
C3265      S3271   1.705       .  A
C3265      C3270   1.388       .  A
C3265      C3266   1.397       .  A
C3266      C3267   1.399       .  A
C3266      H3277   1.083       .  S
C3267      C3276   1.365       .  A
C3267      C3268   1.386       .  A
C3268      S3274   1.717       .  A
C3268      C3269   1.407       .  A
C3269      C3270   1.408       .  A
C3269      H3278   1.083       .  S
C3270      C3273   1.375       .  A
S3271      C3272   1.717       .  A
C3272      C3273   1.388       .  A
C3273      H3279   1.083       .  S
S3274      C3275   1.727       .  A
C3275      C3276   1.386       .  A
C3276      H3280   1.084       .  S
C3281      S3287   1.704       .  A
C3281      C3286   1.387       .  A
C3281      C3282   1.396       .  A
C3282      C3283   1.398       .  A
C3282      H3293   1.083       .  S
C3283      C3292   1.364       .  A
C3283      C3284   1.386       .  A
C3284      S3290   1.720       .  A
C3284      C3285   1.408       .  A
C3285      C3286   1.410       .  A
C3285      H3294   1.083       .  S
C3286      C3289   1.376       .  A
S3287      C3288   1.718       .  A
C3288      C3289   1.390       .  A
C3289      H3295   1.083       .  S
S3290      C3291   1.726       .  A
C3291      C3292   1.383       .  A
C3292      H3296   1.084       .  S
C3297      S3303   1.707       .  A
C3297      C3302   1.387       .  A
C3297      C3298   1.401       .  A
C3298      C3299   1.402       .  A
C3298      H3309   1.083       .  S
C3299      C3308   1.370       .  A
C3299      C3300   1.387       .  A
C3300      S3306   1.710       .  A
C3300      C3301   1.403       .  A
C3301      C3302   1.404       .  A
C3301      H3310   1.083       .  S
C3302      C3305   1.372       .  A
S3303      C3304   1.722       .  A
C3304      C3305   1.387       .  A
C3305      H3311   1.083       .  S
S3306      C3307   1.725       .  A
C3307      C3308   1.387       .  A
C3308      H3312   1.083       .  S
C3313      S3319   1.708   1_545  A
C3313      C3318   1.387       .  A
C3313      C3314   1.404       .  A
C3314      C3315   1.404       .  A
C3314      H3325   1.083   1_545  S
C3315      C3324   1.374       .  A
C3315      C3316   1.387       .  A
C3316      S3322   1.704       .  A
C3316      C3317   1.401       .  A
C3317      C3318   1.401       .  A
C3317      H3326   1.083       .  S
C3318      C3321   1.372       .  A
S3319      C3320   1.725       .  A
C3320      C3321   1.386   1_565  A
C3321      H3327   1.083       .  S
S3322      C3323   1.723       .  A
C3323      C3324   1.388       .  A
C3324      H3328   1.083       .  S
C3329      S3335   1.717       .  A
C3329      C3334   1.387       .  A
C3329      C3330   1.407       .  A
C3330      C3331   1.408       .  A
C3330      H3341   1.083       .  S
C3331      C3340   1.376       .  A
C3331      C3332   1.387       .  A
C3332      S3338   1.701       .  A
C3332      C3333   1.396       .  A
C3333      C3334   1.397       .  A
C3333      H3342   1.083       .  S
C3334      C3337   1.364       .  A
S3335      C3336   1.723       .  A
C3336      C3337   1.380       .  A
C3337      H3343   1.084       .  S
S3338      C3339   1.720       .  A
C3339      C3340   1.391       .  A
C3340      H3344   1.083       .  S
C3345      S3351   1.698       .  A
C3345      C3350   1.387       .  A
C3345      C3346   1.398       .  A
C3346      C3347   1.398       .  A
C3346      H3357   1.083       .  S
C3347      C3356   1.370       .  A
C3347      C3348   1.387       .  A
C3348      S3354   1.707       .  A
C3348      C3349   1.405       .  A
C3349      C3350   1.405       .  A
C3349      H3358   1.083       .  S
C3350      C3353   1.376       .  A
S3351      C3352   1.722       .  A
C3352      C3353   1.389       .  A
C3353      H3359   1.083       .  S
S3354      C3355   1.726       .  A
C3355      C3356   1.382       .  A
C3356      H3360   1.083       .  S
C3361      S3367   1.714       .  A
C3361      C3366   1.387       .  A
C3361      C3362   1.403       .  A
C3362      C3363   1.404       .  A
C3362      H3373   1.083       .  S
C3363      C3372   1.372       .  A
C3363      C3364   1.387       .  A
C3364      S3370   1.712       .  A
C3364      C3365   1.404       .  A
C3365      C3366   1.405       .  A
C3365      H3374   1.083       .  S
C3366      C3369   1.371       .  A
S3367      C3368   1.721       .  A
C3368      C3369   1.389       .  A
C3369      H3375   1.083       .  S
S3370      C3371   1.724       .  A
C3371      C3372   1.387       .  A
C3372      H3376   1.083       .  S
C3377      S3383   1.708       .  A
C3377      C3382   1.387       .  A
C3377      C3378   1.398       .  A
C3378      C3379   1.401       .  A
C3378      H3389   1.083       .  S
C3379      C3388   1.366       .  A
C3379      C3380   1.386       .  A
C3380      S3386   1.719       .  A
C3380      C3381   1.407       .  A
C3381      C3382   1.409       .  A
C3381      H3390   1.083       .  S
C3382      C3385   1.374       .  A
S3383      C3384   1.720       .  A
C3384      C3385   1.390       .  A
C3385      H3391   1.083       .  S
S3386      C3387   1.725       .  A
C3387      C3388   1.385       .  A
C3388      H3392   1.084   1_565  S
C3393      S3399   1.710       .  A
C3393      C3398   1.387       .  A
C3393      C3394   1.402       .  A
C3394      C3395   1.404       .  A
C3394      H3405   1.083       .  S
C3395      C3404   1.369       .  A
C3395      C3396   1.387       .  A
C3396      S3402   1.710       .  A
C3396      C3397   1.401       .  A
C3397      C3398   1.402       .  A
C3397      H3406   1.083       .  S
C3398      C3401   1.368       .  A
S3399      C3400   1.723       .  A
C3400      C3401   1.387       .  A
C3401      H3407   1.083       .  S
S3402      C3403   1.722       .  A
C3403      C3404   1.388       .  A
C3404      H3408   1.083       .  S
C3409      S3415   1.699       .  A
C3409      C3414   1.387       .  A
C3409      C3410   1.392       .  A
C3410      C3411   1.395       .  A
C3410      H3421   1.083       .  S
C3411      C3420   1.358       .  A
C3411      C3412   1.386       .  A
C3412      S3418   1.717       .  A
C3412      C3413   1.406       .  A
C3413      C3414   1.408       .  A
C3413      H3422   1.082       .  S
C3414      C3417   1.372       .  A
S3415      C3416   1.718       .  A
C3416      C3417   1.389       .  A
C3417      H3423   1.083       .  S
S3418      C3419   1.726       .  A
C3419      C3420   1.382       .  A
C3420      H3424   1.083       .  S
C3425      S3431   1.706       .  A
C3425      C3430   1.388       .  A
C3425      C3426   1.399       .  A
C3426      C3427   1.400       .  A
C3426      H3437   1.083       .  S
C3427      C3436   1.366       .  A
C3427      C3428   1.388       .  A
C3428      S3434   1.706       .  A
C3428      C3429   1.398       .  A
C3429      C3430   1.400       .  A
C3429      H3438   1.083       .  S
C3430      C3433   1.366       .  A
S3431      C3432   1.721       .  A
C3432      C3433   1.382       .  A
C3433      H3439   1.083       .  S
S3434      C3435   1.717       .  A
C3435      C3436   1.382       .  A
C3436      H3440   1.083       .  S
C3441      S3447   1.705       .  A
C3441      C3446   1.387       .  A
C3441      C3442   1.396       .  A
C3442      C3443   1.399       .  A
C3442      H3453   1.083       .  S
C3443      C3452   1.362       .  A
C3443      C3444   1.387       .  A
C3444      S3450   1.707       .  A
C3444      C3445   1.398       .  A
C3445      C3446   1.400       .  A
C3445      H3454   1.083       .  S
C3446      C3449   1.362       .  A
S3447      C3448   1.719       .  A
C3448      C3449   1.383       .  A
C3449      H3455   1.083       .  S
S3450      C3451   1.720       .  A
C3451      C3452   1.384       .  A
C3452      H3456   1.083       .  S
C3457      S3463   1.706       .  A
C3457      C3462   1.387       .  A
C3457      C3458   1.403       .  A
C3458      C3459   1.402       .  A
C3458      H3469   1.083       .  S
C3459      C3468   1.373       .  A
C3459      C3460   1.387       .  A
C3460      S3466   1.707       .  A
C3460      C3461   1.404       .  A
C3461      C3462   1.404       .  A
C3461      H3470   1.083       .  S
C3462      C3465   1.374       .  A
S3463      C3464   1.724       .  A
C3464      C3465   1.388       .  A
C3465      H3471   1.083       .  S
S3466      C3467   1.724       .  A
C3467      C3468   1.386       .  A
C3468      H3472   1.083       .  S
C3473      S3479   1.714       .  A
C3473      C3478   1.387       .  A
C3473      C3474   1.403       .  A
C3474      C3475   1.406       .  A
C3474      H3485   1.083       .  S
C3475      C3484   1.369       .  A
C3475      C3476   1.388       .  A
C3476      S3482   1.703       .  A
C3476      C3477   1.394       .  A
C3477      C3478   1.397       .  A
C3477      H3486   1.083       .  S
C3478      C3481   1.361       .  A
S3479      C3480   1.722       .  A
C3480      C3481   1.381       .  A
C3481      H3487   1.084       .  S
S3482      C3483   1.717       .  A
C3483      C3484   1.387       .  A
C3484      H3488   1.083       .  S
C3489      S3495   1.705       .  A
C3489      C3494   1.387       .  A
C3489      C3490   1.397       .  A
C3490      C3491   1.399       .  A
C3490      H3501   1.083       .  S
C3491      C3500   1.362       .  A
C3491      C3492   1.387       .  A
C3492      S3498   1.709       .  A
C3492      C3493   1.400       .  A
C3493      C3494   1.402       .  A
C3493      H3502   1.083       .  S
C3494      C3497   1.366       .  A
S3495      C3496   1.720       .  A
C3496      C3497   1.385       .  A
C3497      H3503   1.083       .  S
S3498      C3499   1.721       .  A
C3499      C3500   1.384       .  A
C3500      H3504   1.083       .  S
C3505      S3511   1.705       .  A
C3505      C3510   1.387       .  A
C3505      C3506   1.397       .  A
C3506      C3507   1.399       .  A
C3506      H3517   1.083       .  S
C3507      C3516   1.363       .  A
C3507      C3508   1.387       .  A
C3508      S3514   1.715       .  A
C3508      C3509   1.404       .  A
C3509      C3510   1.406       .  A
C3509      H3518   1.083       .  S
C3510      C3513   1.371       .  A
S3511      C3512   1.720       .  A
C3512      C3513   1.387       .  A
C3513      H3519   1.083       .  S
S3514      C3515   1.721       .  A
C3515      C3516   1.383       .  A
C3516      H3520   1.084       .  S
C3521      S3527   1.700       .  A
C3521      C3526   1.387       .  A
C3521      C3522   1.397       .  A
C3522      C3523   1.397       .  A
C3522      H3533   1.083       .  S
C3523      C3532   1.368       .  A
C3523      C3524   1.387       .  A
C3524      S3530   1.707       .  A
C3524      C3525   1.404       .  A
C3525      C3526   1.404       .  A
C3525      H3534   1.083       .  S
C3526      C3529   1.373       .  A
S3527      C3528   1.721       .  A
C3528      C3529   1.388       .  A
C3529      H3535   1.083       .  S
S3530      C3531   1.725       .  A
C3531      C3532   1.382       .  A
C3532      H3536   1.083       .  S
C3537      S3543   1.711       .  A
C3537      C3542   1.387       .  A
C3537      C3538   1.403       .  A
C3538      C3539   1.404       .  A
C3538      H3549   1.083       .  S
C3539      C3548   1.371       .  A
C3539      C3540   1.388       .  A
C3540      S3546   1.701       .  A
C3540      C3541   1.397       .  A
C3541      C3542   1.398       .  A
C3541      H3550   1.083       .  S
C3542      C3545   1.364       .  A
S3543      C3544   1.721       .  A
C3544      C3545   1.382       .  A
C3545      H3551   1.084       .  S
S3546      C3547   1.720       .  A
C3547      C3548   1.386       .  A
C3548      H3552   1.083       .  S
C3553      S3559   1.699       .  A
C3553      C3558   1.388       .  A
C3553      C3554   1.398       .  A
C3554      C3555   1.397       .  A
C3554      H3565   1.083       .  S
C3555      C3564   1.369       .  A
C3555      C3556   1.387       .  A
C3556      S3562   1.707       .  A
C3556      C3557   1.406       .  A
C3557      C3558   1.405       .  A
C3557      H3566   1.083       .  S
C3558      C3561   1.377       .  A
S3559      C3560   1.721       .  A
C3560      C3561   1.388       .  A
C3561      H3567   1.083       .  S
S3562      C3563   1.727       .  A
C3563      C3564   1.383       .  A
C3564      H3568   1.083       .  S
C3569      S3575   1.709       .  A
C3569      C3574   1.387       .  A
C3569      C3570   1.405       .  A
C3570      C3571   1.405       .  A
C3570      H3581   1.083       .  S
C3571      C3580   1.377       .  A
C3571      C3572   1.386       .  A
C3572      S3578   1.709       .  A
C3572      C3573   1.405       .  A
C3573      C3574   1.405       .  A
C3573      H3582   1.083       .  S
C3574      C3577   1.376       .  A
S3575      C3576   1.725       .  A
C3576      C3577   1.389       .  A
C3577      H3583   1.083       .  S
S3578      C3579   1.727       .  A
C3579      C3580   1.389       .  A
C3580      H3584   1.083       .  S
C3585      S3591   1.721       .  A
C3585      C3590   1.386       .  A
C3585      C3586   1.409       .  A
C3586      C3587   1.411       .  A
C3586      H3597   1.083       .  S
C3587      C3596   1.377       .  A
C3587      C3588   1.387       .  A
C3588      S3594   1.704       .  A
C3588      C3589   1.396       .  A
C3589      C3590   1.399       .  A
C3589      H3598   1.083       .  S
C3590      C3593   1.363       .  A
S3591      C3592   1.726       .  A
C3592      C3593   1.385       .  A
C3593      H3599   1.084       .  S
S3594      C3595   1.718       .  A
C3595      C3596   1.390       .  A
C3596      H3600   1.083       .  S
C3601      S3607   1.708       .  A
C3601      C3606   1.387       .  A
C3601      C3602   1.402       .  A
C3602      C3603   1.403       .  A
C3602      H3613   1.083       .  S
C3603      C3612   1.370       .  A
C3603      C3604   1.387       .  A
C3604      S3610   1.712       .  A
C3604      C3605   1.404       .  A
C3605      C3606   1.406       .  A
C3605      H3614   1.083       .  S
C3606      C3609   1.374       .  A
S3607      C3608   1.722       .  A
C3608      C3609   1.388       .  A
C3609      H3615   1.083       .  S
S3610      C3611   1.723       .  A
C3611      C3612   1.387       .  A
C3612      H3616   1.083       .  S
C3617      S3623   1.708       .  A
C3617      C3622   1.387       .  A
C3617      C3618   1.399       .  A
C3618      C3619   1.401       .  A
C3618      H3629   1.083       .  S
C3619      C3628   1.366       .  A
C3619      C3620   1.387       .  A
C3620      S3626   1.710       .  A
C3620      C3621   1.401       .  A
C3621      C3622   1.403       .  A
C3621      H3630   1.083       .  S
C3622      C3625   1.367       .  A
S3623      C3624   1.721       .  A
C3624      C3625   1.386       .  A
C3625      H3631   1.083       .  S
S3626      C3627   1.723       .  A
C3627      C3628   1.386       .  A
C3628      H3632   1.083       .  S
C3633      S3639   1.708       .  A
C3633      C3638   1.387       .  A
C3633      C3634   1.401       .  A
C3634      C3635   1.403       .  A
C3634      H3645   1.083       .  S
C3635      C3644   1.368       .  A
C3635      C3636   1.388       .  A
C3636      S3642   1.705       .  A
C3636      C3637   1.398       .  A
C3637      C3638   1.399       .  A
C3637      H3646   1.083       .  S
C3638      C3641   1.364       .  A
S3639      C3640   1.722       .  A
C3640      C3641   1.384       .  A
C3641      H3647   1.083       .  S
S3642      C3643   1.720       .  A
C3643      C3644   1.386       .  A
C3644      H3648   1.083       .  S
C3649      S3655   1.709       .  A
C3649      C3654   1.386       .  A
C3649      C3650   1.402       .  A
C3650      C3651   1.403       .  A
C3650      H3661   1.083       .  S
C3651      C3660   1.371       .  A
C3651      C3652   1.386       .  A
C3652      S3658   1.711       .  A
C3652      C3653   1.404       .  A
C3653      C3654   1.405       .  A
C3653      H3662   1.083       .  S
C3654      C3657   1.373       .  A
S3655      C3656   1.723       .  A
C3656      C3657   1.389       .  A
C3657      H3663   1.083       .  S
S3658      C3659   1.725       .  A
C3659      C3660   1.387       .  A
C3660      H3664   1.083       .  S
C3665      S3671   1.708       .  A
C3665      C3670   1.387       .  A
C3665      C3666   1.400       .  A
C3666      C3667   1.401       .  A
C3666      H3677   1.084       .  S
C3667      C3676   1.367       .  A
C3667      C3668   1.387       .  A
C3668      S3674   1.717       .  A
C3668      C3669   1.406       .  A
C3669      C3670   1.407       .  A
C3669      H3678   1.083       .  S
C3670      C3673   1.374       .  A
S3671      C3672   1.722       .  A
C3672      C3673   1.389       .  A
C3673      H3679   1.083       .  S
S3674      C3675   1.723       .  A
C3675      C3676   1.385       .  A
C3676      H3680   1.084       .  S
C3681      S3687   1.706       .  A
C3681      C3686   1.387       .  A
C3681      C3682   1.401       .  A
C3682      C3683   1.402       .  A
C3682      H3693   1.083       .  S
C3683      C3692   1.371       .  A
C3683      C3684   1.387       .  A
C3684      S3690   1.707       .  A
C3684      C3685   1.402       .  A
C3685      C3686   1.402       .  A
C3685      H3694   1.083       .  S
C3686      C3689   1.371       .  A
S3687      C3688   1.723       .  A
C3688      C3689   1.386       .  A
C3689      H3695   1.083       .  S
S3690      C3691   1.724       .  A
C3691      C3692   1.386       .  A
C3692      H3696   1.083       .  S
C3697      S3703   1.712       .  A
C3697      C3702   1.386       .  A
C3697      C3698   1.404       .  A
C3698      C3699   1.406       .  A
C3698      H3709   1.083       .  S
C3699      C3708   1.373       .  A
C3699      C3700   1.387       .  A
C3700      S3706   1.709       .  A
C3700      C3701   1.401       .  A
C3701      C3702   1.403       .  A
C3701      H3710   1.083       .  S
C3702      C3705   1.370       .  A
S3703      C3704   1.725       .  A
C3704      C3705   1.387       .  A
C3705      H3711   1.083       .  S
S3706      C3707   1.723       .  A
C3707      C3708   1.389       .  A
C3708      H3712   1.083       .  S
C3713      S3719   1.716       .  A
C3713      C3718   1.386       .  A
C3713      C3714   1.406       .  A
C3714      C3715   1.407       .  A
C3714      H3725   1.083       .  S
C3715      C3724   1.373       .  A
C3715      C3716   1.388       .  A
C3716      S3722   1.703       .  A
C3716      C3717   1.396       .  A
C3717      C3718   1.398       .  A
C3717      H3726   1.083       .  S
C3718      C3721   1.363       .  A
S3719      C3720   1.725       .  A
C3720      C3721   1.383       .  A
C3721      H3727   1.083       .  S
S3722      C3723   1.717       .  A
C3723      C3724   1.388       .  A
C3724      H3728   1.083       .  S
C3729      S3735   1.706       .  A
C3729      C3734   1.387       .  A
C3729      C3730   1.400       .  A
C3730      C3731   1.401       .  A
C3730      H3741   1.083       .  S
C3731      C3740   1.368       .  A
C3731      C3732   1.387       .  A
C3732      S3738   1.706       .  A
C3732      C3733   1.400       .  A
C3733      C3734   1.402       .  A
C3733      H3742   1.083       .  S
C3734      C3737   1.369       .  A
S3735      C3736   1.722       .  A
C3736      C3737   1.386       .  A
C3737      H3743   1.083       .  S
S3738      C3739   1.722       .  A
C3739      C3740   1.386       .  A
C3740      H3744   1.083       .  S
C3745      S3751   1.708       .  A
C3745      C3750   1.387   1_554  A
C3745      C3746   1.404       .  A
C3746      C3747   1.404   1_554  A
C3746      H3757   1.083       .  S
C3747      C3756   1.375       .  A
C3747      C3748   1.387       .  A
C3748      S3754   1.704       .  A
C3748      C3749   1.401       .  A
C3749      C3750   1.401       .  A
C3749      H3758   1.083       .  S
C3750      C3753   1.372       .  A
S3751      C3752   1.725   1_554  A
C3752      C3753   1.387       .  A
C3753      H3759   1.083       .  S
S3754      C3755   1.722       .  A
C3755      C3756   1.388       .  A
C3756      H3760   1.083   1_556  S
C3761      S3767   1.707       .  A
C3761      C3766   1.387       .  A
C3761      C3762   1.401       .  A
C3762      C3763   1.402       .  A
C3762      H3773   1.083       .  S
C3763      C3772   1.370       .  A
C3763      C3764   1.387       .  A
C3764      S3770   1.715       .  A
C3764      C3765   1.406       .  A
C3765      C3766   1.407       .  A
C3765      H3774   1.083       .  S
C3766      C3769   1.376       .  A
S3767      C3768   1.722       .  A
C3768      C3769   1.389       .  A
C3769      H3775   1.083       .  S
S3770      C3771   1.724       .  A
C3771      C3772   1.385       .  A
C3772      H3776   1.084       .  S
C3777      S3783   1.702       .  A
C3777      C3782   1.388       .  A
C3777      C3778   1.400       .  A
C3778      C3779   1.400       .  A
C3778      H3789   1.083       .  S
C3779      C3788   1.369       .  A
C3779      C3780   1.387       .  A
C3780      S3786   1.706       .  A
C3780      C3781   1.402       .  A
C3781      C3782   1.402       .  A
C3781      H3790   1.083       .  S
C3782      C3785   1.372       .  A
S3783      C3784   1.723       .  A
C3784      C3785   1.385       .  A
C3785      H3791   1.083       .  S
S3786      C3787   1.723       .  A
C3787      C3788   1.385       .  A
C3788      H3792   1.083       .  S
C3793      S3799   1.717       .  A
C3793      C3798   1.387       .  A
C3793      C3794   1.404       .  A
C3794      C3795   1.406       .  A
C3794      H3805   1.083       .  S
C3795      C3804   1.371       .  A
C3795      C3796   1.388       .  A
C3796      S3802   1.704       .  A
C3796      C3797   1.397       .  A
C3797      C3798   1.399       .  A
C3797      H3806   1.084       .  S
C3798      C3801   1.362       .  A
S3799      C3800   1.721       .  A
C3800      C3801   1.384       .  A
C3801      H3807   1.084       .  S
S3802      C3803   1.719       .  A
C3803      C3804   1.387       .  A
C3804      H3808   1.083       .  S
C3809      S3815   1.710       .  A
C3809      C3814   1.387       .  A
C3809      C3810   1.403       .  A
C3810      C3811   1.405       .  A
C3810      H3821   1.083       .  S
C3811      C3820   1.370       .  A
C3811      C3812   1.387       .  A
C3812      S3818   1.702       .  A
C3812      C3813   1.395       .  A
C3813      C3814   1.397       .  A
C3813      H3822   1.083       .  S
C3814      C3817   1.362       .  A
S3815      C3816   1.723       .  A
C3816      C3817   1.382       .  A
C3817      H3823   1.083       .  S
S3818      C3819   1.719       .  A
C3819      C3820   1.388       .  A
C3820      H3824   1.083       .  S
C3825      S3831   1.708       .  A
C3825      C3830   1.387       .  A
C3825      C3826   1.399       .  A
C3826      C3827   1.401       .  A
C3826      H3837   1.083       .  S
C3827      C3836   1.364       .  A
C3827      C3828   1.387       .  A
C3828      S3834   1.706       .  A
C3828      C3829   1.397       .  A
C3829      C3830   1.399       .  A
C3829      H3838   1.083       .  S
C3830      C3833   1.362       .  A
S3831      C3832   1.721       .  A
C3832      C3833   1.383       .  A
C3833      H3839   1.083       .  S
S3834      C3835   1.720       .  A
C3835      C3836   1.385       .  A
C3836      H3840   1.083       .  S
C3841      S3847   1.708       .  A
C3841      C3846   1.387       .  A
C3841      C3842   1.403       .  A
C3842      C3843   1.403       .  A
C3842      H3853   1.083       .  S
C3843      C3852   1.372       .  A
C3843      C3844   1.387       .  A
C3844      S3850   1.701       .  A
C3844      C3845   1.398       .  A
C3845      C3846   1.399       .  A
C3845      H3854   1.083       .  S
C3846      C3849   1.367       .  A
S3847      C3848   1.722       .  A
C3848      C3849   1.382       .  A
C3849      H3855   1.083       .  S
S3850      C3851   1.722       .  A
C3851      C3852   1.386       .  A
C3852      H3856   1.083       .  S
C3857      S3863   1.704       .  A
C3857      C3862   1.388       .  A
C3857      C3858   1.396       .  A
C3858      C3859   1.399       .  A
C3858      H3869   1.083       .  S
C3859      C3868   1.362       .  A
C3859      C3860   1.387       .  A
C3860      S3866   1.712       .  A
C3860      C3861   1.402       .  A
C3861      C3862   1.404       .  A
C3861      H3870   1.083       .  S
C3862      C3865   1.368       .  A
S3863      C3864   1.717       .  A
C3864      C3865   1.385       .  A
C3865      H3871   1.083       .  S
S3866      C3867   1.722       .  A
C3867      C3868   1.384       .  A
C3868      H3872   1.084       .  S
C3873      S3879   1.706       .  A
C3873      C3878   1.387       .  A
C3873      C3874   1.401       .  A
C3874      C3875   1.402       .  A
C3874      H3885   1.083       .  S
C3875      C3884   1.371       .  A
C3875      C3876   1.388       .  A
C3876      S3882   1.703       .  A
C3876      C3877   1.400       .  A
C3877      C3878   1.400       .  A
C3877      H3886   1.083       .  S
C3878      C3881   1.368       .  A
S3879      C3880   1.723       .  A
C3880      C3881   1.385       .  A
C3881      H3887   1.083       .  S
S3882      C3883   1.722       .  A
C3883      C3884   1.385       .  A
C3884      H3888   1.083       .  S
C3889      S3895   1.710       .  A
C3889      C3894   1.386       .  A
C3889      C3890   1.407       .  A
C3890      C3891   1.406   1_655  A
C3890      H3901   1.083       .  S
C3891      C3900   1.378       .  A
C3891      C3892   1.387       .  A
C3892      S3898   1.703       .  A
C3892      C3893   1.401       .  A
C3893      C3894   1.401   1_455  A
C3893      H3902   1.083       .  S
C3894      C3897   1.373       .  A
S3895      C3896   1.728       .  A
C3896      C3897   1.387       .  A
C3897      H3903   1.083   1_655  S
S3898      C3899   1.723       .  A
C3899      C3900   1.390       .  A
C3900      H3904   1.083   1_455  S
C3905      S3911   1.703       .  A
C3905      C3910   1.387       .  A
C3905      C3906   1.399       .  A
C3906      C3907   1.400       .  A
C3906      H3917   1.083       .  S
C3907      C3916   1.367       .  A
C3907      C3908   1.387       .  A
C3908      S3914   1.703       .  A
C3908      C3909   1.399       .  A
C3909      C3910   1.400       .  A
C3909      H3918   1.083       .  S
C3910      C3913   1.368       .  A
S3911      C3912   1.723       .  A
C3912      C3913   1.384       .  A
C3913      H3919   1.083       .  S
S3914      C3915   1.722       .  A
C3915      C3916   1.383       .  A
C3916      H3920   1.083       .  S
C3921      S3927   1.713       .  A
C3921      C3926   1.388       .  A
C3921      C3922   1.402       .  A
C3922      C3923   1.404       .  A
C3922      H3933   1.083       .  S
C3923      C3932   1.368       .  A
C3923      C3924   1.387       .  A
C3924      S3930   1.705       .  A
C3924      C3925   1.397       .  A
C3925      C3926   1.399       .  A
C3925      H3934   1.083       .  S
C3926      C3929   1.363       .  A
S3927      C3928   1.720       .  A
C3928      C3929   1.381       .  A
C3929      H3935   1.084       .  S
S3930      C3931   1.719       .  A
C3931      C3932   1.387       .  A
C3932      H3936   1.083       .  S
C3937      S3943   1.710       .  A
C3937      C3942   1.387       .  A
C3937      C3938   1.402       .  A
C3938      C3939   1.403       .  A
C3938      H3949   1.083       .  S
C3939      C3948   1.370       .  A
C3939      C3940   1.387       .  A
C3940      S3946   1.707       .  A
C3940      C3941   1.401       .  A
C3941      C3942   1.402       .  A
C3941      H3950   1.083       .  S
C3942      C3945   1.369       .  A
S3943      C3944   1.723       .  A
C3944      C3945   1.388       .  A
C3945      H3951   1.083       .  S
S3946      C3947   1.722       .  A
C3947      C3948   1.387       .  A
C3948      H3952   1.083       .  S
C3953      S3959   1.710       .  A
C3953      C3958   1.387       .  A
C3953      C3954   1.400       .  A
C3954      C3955   1.403       .  A
C3954      H3965   1.083       .  S
C3955      C3964   1.366       .  A
C3955      C3956   1.387       .  A
C3956      S3962   1.711       .  A
C3956      C3957   1.401       .  A
C3957      C3958   1.404       .  A
C3957      H3966   1.083       .  S
C3958      C3961   1.368       .  A
S3959      C3960   1.723       .  A
C3960      C3961   1.387       .  A
C3961      H3967   1.083       .  S
S3962      C3963   1.722       .  A
C3963      C3964   1.387       .  A
C3964      H3968   1.083       .  S
C3969      S3975   1.706       .  A
C3969      C3974   1.387       .  A
C3969      C3970   1.397       .  A
C3970      C3971   1.400       .  A
C3970      H3981   1.083       .  S
C3971      C3980   1.364       .  A
C3971      C3972   1.386       .  A
C3972      S3978   1.717       .  A
C3972      C3973   1.406       .  A
C3973      C3974   1.408       .  A
C3973      H3982   1.083       .  S
C3974      C3977   1.373       .  A
S3975      C3976   1.719       .  A
C3976      C3977   1.389       .  A
C3977      H3983   1.083       .  S
S3978      C3979   1.725       .  A
C3979      C3980   1.385       .  A
C3980      H3984   1.084       .  S
C3985      S3991   1.707       .  A
C3985      C3990   1.387       .  A
C3985      C3986   1.402       .  A
C3986      C3987   1.403       .  A
C3986      H3997   1.083       .  S
C3987      C3996   1.372       .  A
C3987      C3988   1.387       .  A
C3988      S3994   1.705       .  A
C3988      C3989   1.401       .  A
C3989      C3990   1.402       .  A
C3989      H3998   1.083       .  S
C3990      C3993   1.371       .  A
S3991      C3992   1.723       .  A
C3992      C3993   1.386       .  A
C3993      H3999   1.083       .  S
S3994      C3995   1.723       .  A
C3995      C3996   1.386       .  A
C3996      H4000   1.083       .  S
C4001      S4007   1.710       .  A
C4001      C4006   1.387       .  A
C4001      C4002   1.403       .  A
C4002      C4003   1.403       .  A
C4002      H4013   1.083       .  S
C4003      C4012   1.371       .  A
C4003      C4004   1.388       .  A
C4004      S4010   1.706       .  A
C4004      C4005   1.399       .  A
C4005      C4006   1.401       .  A
C4005      H4014   1.083       .  S
C4006      C4009   1.368       .  A
S4007      C4008   1.723       .  A
C4008      C4009   1.387       .  A
C4009      H4015   1.083       .  S
S4010      C4011   1.718       .  A
C4011      C4012   1.383       .  A
C4012      H4016   1.083       .  S
C4017      S4023   1.708       .  A
C4017      C4022   1.387       .  A
C4017      C4018   1.405       .  A
C4018      C4019   1.405       .  A
C4018      H4029   1.083       .  S
C4019      C4028   1.376       .  A
C4019      C4020   1.387       .  A
C4020      S4026   1.700       .  A
C4020      C4021   1.399       .  A
C4021      C4022   1.398       .  A
C4021      H4030   1.083       .  S
C4022      C4025   1.370       .  A
S4023      C4024   1.726       .  A
C4024      C4025   1.383       .  A
C4025      H4031   1.083       .  S
S4026      C4027   1.722       .  A
C4027      C4028   1.389       .  A
C4028      H4032   1.083       .  S
C4033      S4039   1.704       .  A
C4033      C4038   1.387   1_655  A
C4033      C4034   1.403       .  A
C4034      C4035   1.402   1_655  A
C4034      H4045   1.083       .  S
C4035      C4044   1.374       .  A
C4035      C4036   1.387       .  A
C4036      S4042   1.706       .  A
C4036      C4037   1.404       .  A
C4037      C4038   1.404       .  A
C4037      H4046   1.083       .  S
C4038      C4041   1.376       .  A
S4039      C4040   1.725       .  A
C4040      C4041   1.388   1_655  A
C4041      H4047   1.083       .  S
S4042      C4043   1.724       .  A
C4043      C4044   1.387       .  A
C4044      H4048   1.083       .  S
C4049      S4055   1.716       .  A
C4049      C4054   1.386       .  A
C4049      C4050   1.406       .  A
C4050      C4051   1.408       .  A
C4050      H4061   1.083       .  S
C4051      C4060   1.373       .  A
C4051      C4052   1.387       .  A
C4052      S4058   1.712       .  A
C4052      C4053   1.401       .  A
C4053      C4054   1.403       .  A
C4053      H4062   1.083       .  S
C4054      C4057   1.370       .  A
S4055      C4056   1.727       .  A
C4056      C4057   1.387       .  A
C4057      H4063   1.083       .  S
S4058      C4059   1.718       .  A
C4059      C4060   1.390       .  A
C4060      H4064   1.083       .  S
C4065      S4071   1.707       .  A
C4065      C4070   1.387       .  A
C4065      C4066   1.400       .  A
C4066      C4067   1.401       .  A
C4066      H4077   1.083       .  S
C4067      C4076   1.368       .  A
C4067      C4068   1.387       .  A
C4068      S4074   1.709       .  A
C4068      C4069   1.402       .  A
C4069      C4070   1.403       .  A
C4069      H4078   1.083       .  S
C4070      C4073   1.369       .  A
S4071      C4072   1.722       .  A
C4072      C4073   1.386       .  A
C4073      H4079   1.083       .  S
S4074      C4075   1.723       .  A
C4075      C4076   1.386       .  A
C4076      H4080   1.083       .  S
C4081      S4087   1.709       .  A
C4081      C4086   1.387       .  A
C4081      C4082   1.404       .  A
C4082      C4083   1.404       .  A
C4082      H4093   1.083       .  S
C4083      C4092   1.373       .  A
C4083      C4084   1.387       .  A
C4084      S4090   1.706       .  A
C4084      C4085   1.401       .  A
C4085      C4086   1.402       .  A
C4085      H4094   1.083       .  S
C4086      C4089   1.370       .  A
S4087      C4088   1.724       .  A
C4088      C4089   1.386       .  A
C4089      H4095   1.083       .  S
S4090      C4091   1.723       .  A
C4091      C4092   1.389       .  A
C4092      H4096   1.083       .  S
C4097      S4103   1.703       .  A
C4097      C4102   1.387       .  A
C4097      C4098   1.399       .  A
C4098      C4099   1.399       .  A
C4098      H4109   1.083       .  S
C4099      C4108   1.366       .  A
C4099      C4100   1.388       .  A
C4100      S4106   1.710       .  A
C4100      C4101   1.402       .  A
C4101      C4102   1.403       .  A
C4101      H4110   1.083       .  S
C4102      C4105   1.371       .  A
S4103      C4104   1.722       .  A
C4104      C4105   1.387       .  A
C4105      H4111   1.083       .  S
S4106      C4107   1.719       .  A
C4107      C4108   1.381       .  A
C4108      H4112   1.084       .  S
C4113      S4119   1.713       .  A
C4113      C4118   1.387       .  A
C4113      C4114   1.402       .  A
C4114      C4115   1.404       .  A
C4114      H4125   1.083       .  S
C4115      C4124   1.371       .  A
C4115      C4116   1.387       .  A
C4116      S4122   1.710       .  A
C4116      C4117   1.402       .  A
C4117      C4118   1.404       .  A
C4117      H4126   1.083       .  S
C4118      C4121   1.369       .  A
S4119      C4120   1.718       .  A
C4120      C4121   1.386       .  A
C4121      H4127   1.083       .  S
S4122      C4123   1.724       .  A
C4123      C4124   1.387       .  A
C4124      H4128   1.083       .  S
C4129      S4135   1.710       .  A
C4129      C4134   1.386       .  A
C4129      C4130   1.399       .  A
C4130      C4131   1.402       .  A
C4130      H4141   1.083       .  S
C4131      C4140   1.366       .  A
C4131      C4132   1.386       .  A
C4132      S4138   1.714       .  A
C4132      C4133   1.403       .  A
C4133      C4134   1.406       .  A
C4133      H4142   1.083       .  S
C4134      C4137   1.370       .  A
S4135      C4136   1.721       .  A
C4136      C4137   1.390       .  A
C4137      H4143   1.083       .  S
S4138      C4139   1.724       .  A
C4139      C4140   1.386       .  A
C4140      H4144   1.083       .  S
C4145      S4151   1.708       .  A
C4145      C4150   1.387   1_656  A
C4145      C4146   1.403       .  A
C4146      C4147   1.404   1_655  A
C4146      H4157   1.083       .  S
C4147      C4156   1.373       .  A
C4147      C4148   1.387   1_556  A
C4148      S4154   1.702       .  A
C4148      C4149   1.398       .  A
C4149      C4150   1.399       .  A
C4149      H4158   1.083       .  S
C4150      C4153   1.368   1_454  A
S4151      C4152   1.725       .  A
C4152      C4153   1.384       .  A
C4153      H4159   1.083   1_655  S
S4154      C4155   1.722   1_554  A
C4155      C4156   1.387       .  A
C4156      H4160   1.083       .  S
C4161      S4167   1.707       .  A
C4161      C4166   1.387       .  A
C4161      C4162   1.399       .  A
C4162      C4163   1.401       .  A
C4162      H4173   1.083       .  S
C4163      C4172   1.365       .  A
C4163      C4164   1.387       .  A
C4164      S4170   1.706       .  A
C4164      C4165   1.398       .  A
C4165      C4166   1.400       .  A
C4165      H4174   1.083       .  S
C4166      C4169   1.365       .  A
S4167      C4168   1.722       .  A
C4168      C4169   1.385       .  A
C4169      H4175   1.083       .  S
S4170      C4171   1.720       .  A
C4171      C4172   1.386       .  A
C4172      H4176   1.083       .  S
C4177      S4183   1.708       .  A
C4177      C4182   1.386       .  A
C4177      C4178   1.401       .  A
C4178      C4179   1.402       .  A
C4178      H4189   1.083       .  S
C4179      C4188   1.371       .  A
C4179      C4180   1.385       .  A
C4180      S4186   1.720       .  A
C4180      C4181   1.411       .  A
C4181      C4182   1.412       .  A
C4181      H4190   1.083       .  S
C4182      C4185   1.381       .  A
S4183      C4184   1.722       .  A
C4184      C4185   1.395       .  A
C4185      H4191   1.083       .  S
S4186      C4187   1.730       .  A
C4187      C4188   1.388       .  A
C4188      H4192   1.083       .  S
C4193      S4199   1.722       .  A
C4193      C4198   1.386       .  A
C4193      C4194   1.410       .  A
C4194      C4195   1.412       .  A
C4194      H4205   1.083       .  S
C4195      C4204   1.379       .  A
C4195      C4196   1.387       .  A
C4196      S4202   1.706       .  A
C4196      C4197   1.398       .  A
C4197      C4198   1.400       .  A
C4197      H4206   1.083       .  S
C4198      C4201   1.366       .  A
S4199      C4200   1.726       .  A
C4200      C4201   1.384       .  A
C4201      H4207   1.084       .  S
S4202      C4203   1.720       .  A
C4203      C4204   1.393       .  A
C4204      H4208   1.083       .  S
C4209      S4215   1.701       .  A
C4209      C4214   1.387       .  A
C4209      C4210   1.400       .  A
C4210      C4211   1.399       .  A
C4210      H4221   1.083       .  S
C4211      C4220   1.370       .  A
C4211      C4212   1.387       .  A
C4212      S4218   1.706       .  A
C4212      C4213   1.404       .  A
C4213      C4214   1.403       .  A
C4213      H4222   1.083       .  S
C4214      C4217   1.374       .  A
S4215      C4216   1.723       .  A
C4216      C4217   1.387       .  A
C4217      H4223   1.083       .  S
S4218      C4219   1.725       .  A
C4219      C4220   1.384       .  A
C4220      H4224   1.083       .  S
C4225      S4231   1.706       .  A
C4225      C4230   1.387       .  A
C4225      C4226   1.403       .  A
C4226      C4227   1.403       .  A
C4226      H4237   1.083       .  S
C4227      C4236   1.374       .  A
C4227      C4228   1.387   1_554  A
C4228      S4234   1.705       .  A
C4228      C4229   1.402       .  A
C4229      C4230   1.402   1_556  A
C4229      H4238   1.083       .  S
C4230      C4233   1.372       .  A
S4231      C4232   1.724       .  A
C4232      C4233   1.387       .  A
C4233      H4239   1.083       .  S
S4234      C4235   1.725       .  A
C4235      C4236   1.387   1_556  A
C4236      H4240   1.083       .  S
C4241      S4247   1.707       .  A
C4241      C4246   1.388       .  A
C4241      C4242   1.403       .  A
C4242      C4243   1.403       .  A
C4242      H4253   1.083       .  S
C4243      C4252   1.374       .  A
C4243      C4244   1.388       .  A
C4244      S4250   1.698       .  A
C4244      C4245   1.397       .  A
C4245      C4246   1.397       .  A
C4245      H4254   1.083       .  S
C4246      C4249   1.367       .  A
S4247      C4248   1.723       .  A
C4248      C4249   1.382       .  A
C4249      H4255   1.083       .  S
S4250      C4251   1.720       .  A
C4251      C4252   1.385       .  A
C4252      H4256   1.083       .  S
C4257      S4263   1.707       .  A
C4257      C4262   1.387       .  A
C4257      C4258   1.399       .  A
C4258      C4259   1.401       .  A
C4258      H4269   1.083       .  S
C4259      C4268   1.365       .  A
C4259      C4260   1.387       .  A
C4260      S4266   1.706       .  A
C4260      C4261   1.398       .  A
C4261      C4262   1.400       .  A
C4261      H4270   1.083       .  S
C4262      C4265   1.364       .  A
S4263      C4264   1.721       .  A
C4264      C4265   1.384       .  A
C4265      H4271   1.083       .  S
S4266      C4267   1.721       .  A
C4267      C4268   1.385       .  A
C4268      H4272   1.083       .  S
C4273      S4279   1.706       .  A
C4273      C4278   1.387   1_556  A
C4273      C4274   1.399       .  A
C4274      C4275   1.400   1_556  A
C4274      H4285   1.083       .  S
C4275      C4284   1.369       .  A
C4275      C4276   1.387       .  A
C4276      S4282   1.710       .  A
C4276      C4277   1.403       .  A
C4277      C4278   1.404       .  A
C4277      H4286   1.083       .  S
C4278      C4281   1.371       .  A
S4279      C4280   1.722       .  A
C4280      C4281   1.388   1_556  A
C4281      H4287   1.083       .  S
S4282      C4283   1.725       .  A
C4283      C4284   1.384       .  A
C4284      H4288   1.083       .  S
C4289      S4295   1.702       .  A
C4289      C4294   1.387       .  A
C4289      C4290   1.396       .  A
C4290      C4291   1.398       .  A
C4290      H4301   1.083       .  S
C4291      C4300   1.364       .  A
C4291      C4292   1.388       .  A
C4292      S4298   1.712       .  A
C4292      C4293   1.403       .  A
C4293      C4294   1.405       .  A
C4293      H4302   1.083       .  S
C4294      C4297   1.371       .  A
S4295      C4296   1.720       .  A
C4296      C4297   1.388       .  A
C4297      H4303   1.083       .  S
S4298      C4299   1.721       .  A
C4299      C4300   1.380       .  A
C4300      H4304   1.084       .  S
C4305      S4311   1.704       .  A
C4305      C4310   1.387       .  A
C4305      C4306   1.401       .  A
C4306      C4307   1.401       .  A
C4306      H4317   1.083       .  S
C4307      C4316   1.371       .  A
C4307      C4308   1.387       .  A
C4308      S4314   1.707       .  A
C4308      C4309   1.403       .  A
C4309      C4310   1.403       .  A
C4309      H4318   1.083       .  S
C4310      C4313   1.373       .  A
S4311      C4312   1.723       .  A
C4312      C4313   1.387       .  A
C4313      H4319   1.083       .  S
S4314      C4315   1.724       .  A
C4315      C4316   1.386       .  A
C4316      H4320   1.083       .  S
C4321      S4327   1.713       .  A
C4321      C4326   1.386   1_655  A
C4321      C4322   1.405       .  A
C4322      C4323   1.406       .  A
C4322      H4333   1.083       .  S
C4323      C4332   1.373       .  A
C4323      C4324   1.387   1_655  A
C4324      S4330   1.706       .  A
C4324      C4325   1.400       .  A
C4325      C4326   1.401       .  A
C4325      H4334   1.083       .  S
C4326      C4329   1.368       .  A
S4327      C4328   1.725   1_655  A
C4328      C4329   1.387       .  A
C4329      H4335   1.083       .  S
S4330      C4331   1.723   1_455  A
C4331      C4332   1.389       .  A
C4332      H4336   1.083       .  S
C4337      S4343   1.705       .  A
C4337      C4342   1.387       .  A
C4337      C4338   1.397       .  A
C4338      C4339   1.399       .  A
C4338      H4349   1.083       .  S
C4339      C4348   1.365       .  A
C4339      C4340   1.386       .  A
C4340      S4346   1.721       .  A
C4340      C4341   1.409       .  A
C4341      C4342   1.410       .  A
C4341      H4350   1.083       .  S
C4342      C4345   1.377       .  A
S4343      C4344   1.720       .  A
C4344      C4345   1.391       .  A
C4345      H4351   1.083       .  S
S4346      C4347   1.726       .  A
C4347      C4348   1.385       .  A
C4348      H4352   1.084       .  S
C4353      S4359   1.708       .  A
C4353      C4358   1.387       .  A
C4353      C4354   1.401       .  A
C4354      C4355   1.402       .  A
C4354      H4365   1.083       .  S
C4355      C4364   1.370       .  A
C4355      C4356   1.387       .  A
C4356      S4362   1.711       .  A
C4356      C4357   1.404       .  A
C4357      C4358   1.405       .  A
C4357      H4366   1.083       .  S
C4358      C4361   1.372       .  A
S4359      C4360   1.722       .  A
C4360      C4361   1.389       .  A
C4361      H4367   1.083       .  S
S4362      C4363   1.725       .  A
C4363      C4364   1.386       .  A
C4364      H4368   1.083       .  S
C4369      S4375   1.704       .  A
C4369      C4374   1.387       .  A
C4369      C4370   1.402       .  A
C4370      C4371   1.401       .  A
C4370      H4381   1.083       .  S
C4371      C4380   1.374       .  A
C4371      C4372   1.387       .  A
C4372      S4378   1.705       .  A
C4372      C4373   1.404       .  A
C4373      C4374   1.403       .  A
C4373      H4382   1.083       .  S
C4374      C4377   1.374       .  A
S4375      C4376   1.722       .  A
C4376      C4377   1.387       .  A
C4377      H4383   1.083       .  S
S4378      C4379   1.726       .  A
C4379      C4380   1.386       .  A
C4380      H4384   1.083       .  S
C4385      S4391   1.716       .  A
C4385      C4390   1.387       .  A
C4385      C4386   1.408       .  A
C4386      C4387   1.408       .  A
C4386      H4397   1.083       .  S
C4387      C4396   1.378       .  A
C4387      C4388   1.387       .  A
C4388      S4394   1.703       .  A
C4388      C4389   1.399       .  A
C4389      C4390   1.400       .  A
C4389      H4398   1.083       .  S
C4390      C4393   1.368       .  A
S4391      C4392   1.724       .  A
C4392      C4393   1.384       .  A
C4393      H4399   1.083       .  S
S4394      C4395   1.720       .  A
C4395      C4396   1.390       .  A
C4396      H4400   1.083       .  S
C4401      S4407   1.713       .  A
C4401      C4406   1.387       .  A
C4401      C4402   1.404       .  A
C4402      C4403   1.406       .  A
C4402      H4413   1.083       .  S
C4403      C4412   1.372       .  A
C4403      C4404   1.387       .  A
C4404      S4410   1.703       .  A
C4404      C4405   1.397       .  A
C4405      C4406   1.399       .  A
C4405      H4414   1.083       .  S
C4406      C4409   1.365       .  A
S4407      C4408   1.722       .  A
C4408      C4409   1.383       .  A
C4409      H4415   1.083       .  S
S4410      C4411   1.719       .  A
C4411      C4412   1.388       .  A
C4412      H4416   1.083       .  S
