geometry optimzed in LAMMPS
_audit_creation_date              2020-12-01 
_audit_creation_method            'lammps2cif' 
_symmetry_space_group_name_H-M    'P1' 
_symmetry_Int_Tables_number       1 
_symmetry_cell_setting            triclinic 
loop_ 
_symmetry_equiv_pos_as_xyz 
  x,y,z 
_cell_length_a                    36.28878581 
_cell_length_b                    40.527966617165966 
_cell_length_c                    37.577451414281285 
_cell_angle_alpha                 89.53837472132066 
_cell_angle_beta                  90.3020389135624 
_cell_angle_gamma                 89.771346279043 
loop_ 
_atom_site_label 
_atom_site_type_symbol 
_atom_site_fract_x 
_atom_site_fract_y 
_atom_site_fract_z 
_atom_site_charge 
C1          C  0.80858822  0.85197424  0.02386978     0.80600
N2          N  0.82732541  0.88040650  0.01877935    -0.77700
C3          C  0.82802287  0.89537839  0.98633827     0.83100
N4          N  0.80943984  0.88158202  0.95830753    -0.77600
C5          C  0.79087445  0.85253840  0.96358295     0.83100
N6          N  0.79063418  0.83834764  0.99617725    -0.79400
C7          C  0.75921006  0.15463390  0.02234963     0.80600
N8          N  0.73761588  0.15472814  0.99304883    -0.77700
C9          C  0.74548813  0.13693637  0.96376450     0.83100
N10         N  0.77677676  0.11757191  0.96416862    -0.77600
C11         C  0.79990566  0.11689412  0.99352641     0.83100
N12         N  0.79098548  0.13601455  0.02247012    -0.79400
C13         C  0.11933181  0.89470680  0.03864619     0.80600
N14         N  0.09089858  0.91565840  0.03269789    -0.77700
C15         C  0.06965842  0.91325101  0.00317124     0.83100
N16         N  0.07711952  0.88911407  0.97875100    -0.76400
C17         C  0.10689585  0.86852558  0.98393329     0.83100
N18         N  0.12726896  0.87142893  0.01412257    -0.79400
C19         C  0.81448721  0.03767169  0.81446123     0.80600
N20         N  0.79899594  0.01013019  0.80101742    -0.77700
C21         C  0.80211865  0.98048840  0.81780932     0.83100
N22         N  0.82106474  0.97849421  0.84961371    -0.77600
C23         C  0.83663628  0.00653905  0.86347499     0.83100
N24         N  0.83335914  0.03544525  0.84549636    -0.79400
C25         C  0.91366613  0.17515380  0.84917877     0.80600
N26         N  0.91384847  0.15615687  0.87981067    -0.77700
C27         C  0.94264800  0.13445268  0.88644658     0.83100
N28         N  0.97057511  0.13215793  0.86173741    -0.77600
C29         C  0.97031691  0.15123193  0.83144053     0.83100
N30         N  0.94187065  0.17218218  0.82617522    -0.79400
C31         C  0.92178537  0.87609739  0.84317352     0.80600
N32         N  0.92523275  0.89783843  0.87001409    -0.77700
C33         C  0.95326732  0.91979297  0.87055174     0.83100
N34         N  0.97870415  0.91990039  0.84373843    -0.77600
C35         C  0.97551659  0.89778507  0.81648432     0.83100
N36         N  0.94693576  0.87627617  0.81668390    -0.79400
C37         C  0.13101231  0.04738312  0.88774734     0.80600
N38         N  0.14482097  0.01812623  0.87645553    -0.77700
C39         C  0.12503198  0.98991965  0.88029784     0.83100
N40         N  0.09087702  0.99148767  0.89498827    -0.77600
C41         C  0.07685122  0.02073480  0.90566875     0.83100
N42         N  0.09719407  0.04818241  0.90261174    -0.79400
C43         C  0.90735160  0.84809334  0.14372520     0.80600
N44         N  0.93542216  0.82677430  0.13812816    -0.77700
C45         C  0.96355894  0.83371575  0.11595122     0.83100
N46         N  0.96332158  0.86343617  0.09827919    -0.77600
C47         C  0.93540575  0.88602792  0.10321034     0.83100
N48         N  0.90740047  0.87822217  0.12646961    -0.79400
C49         C  0.76451256  0.03981726  0.13997751     0.80600
N50         N  0.74110732  0.01449280  0.14621318    -0.77700
C51         C  0.74495031  0.98470564  0.13026093     0.83100
N52         N  0.77360238  0.98050442  0.10684718    -0.77600
C53         C  0.79761959  0.00605226  0.10037123     0.83100
N54         N  0.79274082  0.03537060  0.11705257    -0.79400
C55         C  0.89621928  0.12841632  0.18827550     0.80600
N56         N  0.92812371  0.14167229  0.19972368    -0.77700
C57         C  0.95944510  0.13946034  0.18074315     0.83100
N58         N  0.95900754  0.12322645  0.14874028    -0.77600
C59         C  0.92698698  0.10889770  0.13655847     0.83100
N60         N  0.89549283  0.11223041  0.15636000    -0.79400
Zr61       Zr  0.22989684  0.28450822  0.30208047     2.17500
O62         O  0.27752525  0.28551065  0.34802675    -0.50900
O63         O  0.23088149  0.34148023  0.32030965    -0.74100
O64         O  0.29090620  0.28636407  0.27870063    -0.80900
O65         O  0.15221763  0.27895733  0.36491893    -0.82700
O66         O  0.28359377  0.31364633  0.22782713    -0.78300
O67         O  0.20707298  0.25864964  0.35467943    -0.89900
O68         O  0.19449698  0.37015958  0.28163931    -0.75900
O69         O  0.22040641  0.31386519  0.24762936    -0.85400
O70         O  0.16705890  0.30329448  0.30169725    -0.85100
O71         O  0.24637429  0.24541374  0.25672009    -0.71800
O72         O  0.19268795  0.23609758  0.31003837    -0.84000
Zr73       Zr  0.13625256  0.24559527  0.20808309     2.26400
Zr74       Zr  0.23616957  0.27540806  0.20186091     2.06300
Zr75       Zr  0.12908537  0.25465984  0.30851698     2.10000
Zr76       Zr  0.15806326  0.33178537  0.24747594     1.78800
O77         O  0.11541845  0.21520382  0.35573321    -0.92800
O78         O  0.17465905  0.37175922  0.20151926    -0.40600
O79         O  0.11959535  0.28414288  0.25328049    -0.77200
O80         O  0.17307643  0.29513456  0.20071370    -0.95900
O81         O  0.19876626  0.22705175  0.20920381    -0.89200
O82         O  0.14546530  0.21604682  0.26278069    -0.92000
C83         C  0.21769738  0.36841409  0.30746646     1.01700
C84         C  0.18657073  0.27710890  0.37311010     1.14600
C85         C  0.30014724  0.30977086  0.25815597     1.05400
O86         O  0.24702895  0.31037820  0.14998704    -0.94200
O87         O  0.21351503  0.24196581  0.15031677    -0.89900
O88         O  0.15725431  0.26258078  0.15132946    -0.83100
C89         C  0.18059009  0.24372822  0.13731888     1.12100
O90         O  0.25756916  0.18252492  0.30410143    -0.96200
Zr91       Zr  0.20761936  0.19844683  0.26378930     1.88900
O92         O  0.13172305  0.18716905  0.19549596    -0.72800
O93         O  0.29471870  0.24972661  0.18643016    -0.52100
O94         O  0.25213239  0.16485626  0.23190408    -0.96800
O95         O  0.18463986  0.15679705  0.30526865    -0.54000
O96         O  0.17612159  0.15988636  0.22638364    -0.73300
C97         C  0.14875609  0.16070138  0.20485551     0.99000
O98         O  0.09126548  0.24314406  0.15968921    -0.62200
O99         O  0.07410218  0.28574161  0.32433743    -0.57000
O100        O  0.07520475  0.25042852  0.23161926    -0.93700
O101        O  0.07705734  0.22234926  0.28234998    -0.92100
O102        O  0.11506020  0.36426724  0.28248602    -0.92400
O103        O  0.10385471  0.34858597  0.21314346    -0.91200
C104        C  0.06326031  0.22699436  0.25096949     1.17800
H105        H  0.16252441  0.31914038  0.32019840     0.33800
H106        H  0.16875604  0.30875051  0.17983719     0.44600
H107        H  0.13075149  0.19630780  0.26413049     0.38200
H108        H  0.27122463  0.23685253  0.25815018     0.34600
H109        H  0.16319945  0.39273218  0.20916185     0.26400
H110        H  0.29453210  0.22790607  0.19840166     0.32400
H111        H  0.25975013  0.17877564  0.21150435     0.38300
H112        H  0.12017728  0.38746951  0.27577980     0.32700
H113        H  0.05769354  0.26923575  0.33554241     0.31600
H114        H  0.13984309  0.20833563  0.36509809     0.33300
H115        H  0.16757043  0.14287777  0.29134408     0.32300
H116        H  0.08494302  0.33171511  0.21840094     0.36300
H117        H  0.07710110  0.22264770  0.16375266     0.29000
H118        H  0.29169218  0.30602876  0.34419205     0.33200
H119        H  0.25736844  0.15809749  0.30478008     0.36100
H120        H  0.08200477  0.30001986  0.34419213     0.28700
H121        H  0.07359610  0.26133133  0.16389867     0.41600
H122        H  0.27025443  0.30189895  0.13971129     0.31600
H123        H  0.20145266  0.37520671  0.20480567     0.39200
H124        H  0.16843792  0.16910970  0.32162127     0.31100
H125        H  0.29236981  0.24460360  0.16080568     0.31100
H126        H  0.29475165  0.26722098  0.34270628     0.31400
C127        C  0.08899737  0.03441320  0.16476941     0.80600
N128        N  0.10005999  0.00709274  0.18295672    -0.77700
C129        C  0.08432925  0.97731832  0.17724158     0.83100
N130        N  0.05626199  0.97499019  0.15247286    -0.77600
C131        C  0.04532866  0.00269211  0.13366134     0.83100
N132        N  0.06205218  0.03179965  0.14007322    -0.79400
Zr133      Zr  0.21400681  0.72029388  0.28973742     2.17500
O134        O  0.27796897  0.70602300  0.30274864    -0.50900
O135        O  0.19486963  0.67459331  0.32615589    -0.74100
O136        O  0.23041707  0.73572145  0.34888587    -0.80900
O137        O  0.18302786  0.65921674  0.22787368    -0.82700
O138        O  0.24561832  0.78858505  0.34324148    -0.78300
O139        O  0.23429176  0.68452998  0.24385918    -0.89900
O140        O  0.14583298  0.69542937  0.35499559    -0.75900
O141        O  0.17411689  0.75397537  0.31795452    -0.85400
O142        O  0.15400930  0.70007567  0.27523622    -0.85100
O143        O  0.23044809  0.77619575  0.27539654    -0.71800
O144        O  0.20771819  0.72852628  0.22673305    -0.84000
Zr145      Zr  0.11923743  0.79793668  0.23760492     2.26400
Zr146      Zr  0.18892572  0.80892204  0.31077247     2.06300
Zr147      Zr  0.14627759  0.71032985  0.21248716     2.10000
Zr148      Zr  0.11624021  0.73246652  0.31233794     1.78800
O149        O  0.16790438  0.69027333  0.15537132    -0.92800
O150        O  0.09229479  0.75104205  0.36931657    -0.40600
O151        O  0.10538672  0.74139424  0.25004334    -0.77200
O152        O  0.12649939  0.79002694  0.30055450    -0.95900
O153        O  0.17993578  0.81750114  0.24858903    -0.89200
O154        O  0.15901814  0.76697282  0.19991247    -0.92000
C155        C  0.17285641  0.67508187  0.35259290     1.01700
C156        C  0.21650028  0.65803656  0.23996912     1.14600
C157        C  0.25250292  0.75911135  0.35505111     1.05400
O158        O  0.15904198  0.82307504  0.36662908    -0.94200
O159        O  0.16681707  0.86195079  0.28117303    -0.89900
O160        O  0.10931041  0.84675251  0.27113526    -0.83100
C161        C  0.13371091  0.86885697  0.27013497     1.12100
O162        O  0.28373760  0.76755770  0.20967561    -0.96200
Zr163      Zr  0.21959768  0.78513416  0.21310410     1.88900
O164        O  0.13553907  0.83716670  0.19182783    -0.72800
O165        O  0.22818724  0.85508575  0.32741573    -0.52100
O166        O  0.25780572  0.83374259  0.22134683    -0.96800
O167        O  0.23753057  0.76890521  0.15322076    -0.54000
O168        O  0.19327880  0.82569932  0.17283578    -0.73300
C169        C  0.16263935  0.84141366  0.17057394     0.99000
O170        O  0.05348744  0.81097478  0.24029172    -0.62200
O171        O  0.09830982  0.66853907  0.20856728    -0.57000
O172        O  0.08420430  0.78554711  0.18658722    -0.93700
O173        O  0.09991845  0.73384546  0.16851315    -0.92100
O174        O  0.08428964  0.67986403  0.30740001    -0.92400
O175        O  0.05008000  0.74268935  0.31022073    -0.91200
C176        C  0.08201251  0.76160886  0.16503458     1.17800
H177        H  0.15007265  0.67699391  0.28029683     0.33800
H178        H  0.10901630  0.80264489  0.31418997     0.44600
H179        H  0.15435611  0.77161418  0.17511910     0.38200
H180        H  0.25582280  0.78034204  0.28040873     0.34600
H181        H  0.09658180  0.73249405  0.38614804     0.26400
H182        H  0.23508234  0.85133110  0.35264837     0.32400
H183        H  0.24231175  0.84929806  0.23495728     0.38300
H184        H  0.08231155  0.67141849  0.33210684     0.32700
H185        H  0.08964789  0.66562991  0.23331538     0.31600
H186        H  0.18585607  0.70703205  0.14733685     0.33300
H187        H  0.21483628  0.77111087  0.13864359     0.32300
H188        H  0.04248986  0.73719912  0.28562867     0.36300
H189        H  0.04085774  0.78938381  0.23914922     0.29000
H190        H  0.29074919  0.70651495  0.27955797     0.33200
H191        H  0.28296440  0.74322844  0.21222447     0.36100
H192        H  0.07738719  0.67934726  0.19604766     0.28700
H193        H  0.04888389  0.81837159  0.26491482     0.41600
H194        H  0.17523605  0.83963122  0.37788820     0.31600
H195        H  0.10959933  0.76839815  0.37709057     0.39200
H196        H  0.24185972  0.74480254  0.15484364     0.31100
H197        H  0.25129974  0.85155005  0.31405459     0.31100
H198        H  0.27746880  0.68247837  0.30993876     0.31400
Zr199      Zr  0.73943679  0.24932852  0.21500913     2.17500
O200        O  0.78960220  0.27408030  0.18064184    -0.50900
O201        O  0.74255607  0.19127768  0.19739039    -0.74100
O202        O  0.79576457  0.24041085  0.24645458    -0.80900
O203        O  0.67219797  0.25094386  0.14249347    -0.82700
O204        O  0.77811983  0.21085238  0.29254840    -0.78300
O205        O  0.73341662  0.25381585  0.15237187    -0.89900
O206        O  0.69990948  0.16250118  0.22854318    -0.75900
O207        O  0.72289392  0.21872425  0.26691046    -0.85400
O208        O  0.67757119  0.23108316  0.20775461    -0.85100
O209        O  0.75023799  0.28579251  0.26410466    -0.71800
O210        O  0.70515824  0.29879330  0.20454021    -0.84000
Zr211      Zr  0.63608726  0.28814555  0.29871478     2.26400
Zr212      Zr  0.73329676  0.25429447  0.31642524     2.06300
Zr213      Zr  0.64293506  0.28029328  0.19602610     2.10000
Zr214      Zr  0.66122777  0.20180069  0.25969164     1.78800
O215        O  0.64279298  0.32372918  0.15091630    -0.92800
O216        O  0.67625516  0.16021269  0.30469421    -0.40600
O217        O  0.62565067  0.25099958  0.24998829    -0.77200
O218        O  0.67011081  0.23748587  0.30917331    -0.95900
O219        O  0.69854372  0.30440644  0.30684937    -0.89200
O220        O  0.65255777  0.31767371  0.24568367    -0.92000
C221        C  0.72682370  0.16418924  0.20658059     1.01700
C222        C  0.70632757  0.24457896  0.13348745     1.14600
C223        C  0.79773908  0.21379175  0.26382373     1.05400
O224        O  0.73470256  0.21791454  0.36826092    -0.94200
O225        O  0.70335615  0.28641063  0.36672620    -0.89900
O226        O  0.64487882  0.27186180  0.35910881    -0.83100
C227        C  0.66900042  0.28738409  0.37655364     1.12100
O228        O  0.76475700  0.35557090  0.21899919    -0.96200
Zr229      Zr  0.71410929  0.33436612  0.25470303     1.88900
O230        O  0.62874665  0.34685483  0.31223083    -0.72800
O231        O  0.79185269  0.27571998  0.33804794    -0.52100
O232        O  0.76154375  0.35781968  0.29300530    -0.96800
O233        O  0.69609171  0.38174279  0.21792528    -0.54000
O234        O  0.67996506  0.37190741  0.29174595    -0.73300
C235        C  0.64933389  0.37236184  0.30842899     0.99000
O236        O  0.58593101  0.28802623  0.34155546    -0.62200
O237        O  0.58976005  0.25396151  0.16875913    -0.57000
O238        O  0.58120854  0.28137762  0.26440035    -0.93700
O239        O  0.58750073  0.31234790  0.21657316    -0.92100
O240        O  0.61957401  0.17410050  0.21857288    -0.92400
O241        O  0.60489708  0.18373402  0.28876833    -0.91200
C242        C  0.57125624  0.30646964  0.24643394     1.17800
H243        H  0.67521639  0.21488031  0.18924017     0.33800
H244        H  0.66229235  0.22496488  0.32974025     0.44600
H245        H  0.63838491  0.33772764  0.24299024     0.38200
H246        H  0.77562145  0.29273994  0.26571849     0.34600
H247        H  0.67421758  0.13886144  0.29224188     0.26400
H248        H  0.80978723  0.27062585  0.31907371     0.32400
H249        H  0.74814571  0.36797056  0.31304577     0.38300
H250        H  0.63200878  0.15320903  0.21218426     0.32700
H251        H  0.59901950  0.23208762  0.16127591     0.31600
H252        H  0.66662817  0.32113504  0.13851796     0.33300
H253        H  0.67200810  0.38933803  0.22710519     0.32300
H254        H  0.58522222  0.19792871  0.27845689     0.36300
H255        H  0.57368226  0.30976332  0.33910827     0.29000
H256        H  0.80896599  0.28010174  0.19803132     0.33200
H257        H  0.78619138  0.34147471  0.22531572     0.36100
H258        H  0.57313518  0.24898823  0.18889882     0.28700
H259        H  0.56792547  0.27167300  0.33284244     0.41600
H260        H  0.75776811  0.22371433  0.38088767     0.31600
H261        H  0.70299915  0.16292224  0.30911815     0.39200
H262        H  0.69014429  0.37221145  0.19442225     0.31100
H263        H  0.78888390  0.29999811  0.33693087     0.31100
H264        H  0.77991489  0.29570208  0.17232033     0.31400
Zr265      Zr  0.63404642  0.72633231  0.27215206     2.17500
O266        O  0.60582042  0.67391981  0.25616184    -0.50900
O267        O  0.59925512  0.72792874  0.32618947    -0.74100
O268        O  0.65736504  0.68165473  0.30678376    -0.80900
O269        O  0.55772595  0.78047006  0.25213227    -0.82700
O270        O  0.71949917  0.68643094  0.31370663    -0.78300
O271        O  0.57449907  0.72825286  0.24477474    -0.89900
O272        O  0.62169924  0.76940645  0.35986580    -0.75900
O273        O  0.68112882  0.74499966  0.31117594    -0.85400
O274        O  0.61901124  0.78238656  0.28535682    -0.85100
O275        O  0.69133676  0.71640260  0.24243336    -0.71800
O276        O  0.63085581  0.75237483  0.21490865    -0.84000
Zr277      Zr  0.71940195  0.82089085  0.23842029     2.26400
Zr278      Zr  0.73872957  0.73783024  0.28111701     2.06300
Zr279      Zr  0.61526065  0.80886265  0.22803514     2.10000
Zr280      Zr  0.66572600  0.80045200  0.32430557     1.78800
O281        O  0.58194838  0.80020985  0.17251104    -0.92800
O282        O  0.70140965  0.78367935  0.37653088    -0.40600
O283        O  0.66191429  0.82971917  0.26825976    -0.77200
O284        O  0.72363967  0.79415186  0.29541294    -0.95900
O285        O  0.73559169  0.76545477  0.22503291    -0.89200
O286        O  0.67327911  0.80075765  0.19890135    -0.92000
C287        C  0.60045962  0.74454756  0.35489379     1.01700
C288        C  0.55143452  0.74908163  0.25630497     1.14600
C289        C  0.68815564  0.67199832  0.31950255     1.05400
O290        O  0.77582375  0.74673594  0.33431763    -0.94200
O291        O  0.79235630  0.76459284  0.24925454    -0.89900
O292        O  0.78108675  0.81746871  0.26000878    -0.83100
C293        C  0.80138009  0.79551505  0.24649302     1.12100
O294        O  0.66300886  0.69341561  0.16675290    -0.96200
Zr295      Zr  0.68941382  0.74529610  0.18655540     1.88900
O296        O  0.75196042  0.82036902  0.18243047    -0.72800
O297        O  0.78033806  0.69250988  0.26725787    -0.52100
O298        O  0.73737548  0.70760779  0.16680307    -0.96800
O299        O  0.65865078  0.75577933  0.12966487    -0.54000
O300        O  0.73373128  0.77563724  0.15134161    -0.73300
C301        C  0.75269340  0.80204895  0.15482517     0.99000
O302        O  0.74576664  0.87264794  0.25925082    -0.62200
O303        O  0.57230344  0.85311724  0.24225583    -0.57000
O304        O  0.69821394  0.86674128  0.20498866    -0.93700
O305        O  0.63664785  0.86023849  0.19495997    -0.92100
O306        O  0.62457478  0.83941137  0.35327282    -0.92400
O307        O  0.69325953  0.85201391  0.34385629    -0.91200
C308        C  0.66795984  0.87544012  0.19052208     1.17800
H309        H  0.59665070  0.78520579  0.29873569     0.33800
H310        H  0.74248596  0.80371644  0.31027474     0.44600
H311        H  0.67389979  0.81238493  0.17642655     0.38200
H312        H  0.69492151  0.69302504  0.23875981     0.34600
H313        H  0.72352171  0.79790372  0.37631123     0.26400
H314        H  0.78313620  0.69355737  0.24109379     0.32400
H315        H  0.74537424  0.69574570  0.18863140     0.38300
H316        H  0.59987112  0.83467890  0.34329176     0.32700
H317        H  0.58635773  0.86781628  0.25822758     0.31600
H318        H  0.55733277  0.79230582  0.17984466     0.33300
H319        H  0.67835706  0.75419815  0.11161935     0.32300
H320        H  0.69173176  0.86686891  0.32285298     0.36300
H321        H  0.75706563  0.88316698  0.23808408     0.29000
H322        H  0.59551402  0.66484756  0.27854508     0.33200
H323        H  0.64255614  0.68909964  0.18347320     0.36100
H324        H  0.56922162  0.86594144  0.21989279     0.28700
H325        H  0.72453616  0.88693277  0.26525878     0.41600
H326        H  0.80154014  0.74718468  0.32567130     0.31600
H327        H  0.68680837  0.79158260  0.39697334     0.39200
H328        H  0.65178219  0.77943352  0.12976468     0.31100
H329        H  0.80458264  0.69954869  0.27663953     0.31100
H330        H  0.62645208  0.65898039  0.25006781     0.31400
C331        C  0.10345859  0.16092582  0.03957171     0.80600
N332        N  0.11436937  0.17369326  0.00831606    -0.77700
C333        C  0.09643027  0.16821983  0.97770158     0.83100
N334        N  0.06621609  0.14757349  0.97802940    -0.77600
C335        C  0.05533401  0.13251227  0.00955185     0.83100
N336        N  0.07367565  0.14029970  0.04049709    -0.79400
Zr337      Zr  0.13609607  0.24255581  0.79756367     2.17500
O338        O  0.08291219  0.23033182  0.83494741    -0.50900
O339        O  0.15180636  0.18994988  0.82404905    -0.74100
O340        O  0.08340191  0.22220649  0.76717198    -0.80900
O341        O  0.18817383  0.27297231  0.87206173    -0.82700
O342        O  0.10735642  0.19629971  0.72015321    -0.78300
O343        O  0.13127544  0.27368075  0.85101382    -0.89900
O344        O  0.20632227  0.16924671  0.80581001    -0.75900
O345        O  0.16601058  0.21211041  0.75228764    -0.85400
O346        O  0.20014812  0.24134822  0.81271648    -0.85100
O347        O  0.11990748  0.27029157  0.74259832    -0.71800
O348        O  0.15341853  0.29930672  0.80311318    -0.84000
Zr349      Zr  0.23348448  0.29427986  0.71720690     2.26400
Zr350      Zr  0.15150428  0.23960760  0.69711475     2.06300
Zr351      Zr  0.21822425  0.29832504  0.81765974     2.10000
Zr352      Zr  0.22974527  0.21125567  0.76719636     1.78800
O353        O  0.20326971  0.34589317  0.85407548    -0.92800
O354        O  0.22556755  0.15915766  0.73541751    -0.40600
O355        O  0.24946925  0.26731059  0.77201385    -0.77200
O356        O  0.21615474  0.23726282  0.71184945    -0.95900
O357        O  0.16967921  0.29595862  0.70239202    -0.89200
O358        O  0.20355465  0.32602574  0.76214708    -0.92000
C359        C  0.17679814  0.16757233  0.82396049     1.01700
C360        C  0.15366339  0.26542041  0.87551617     1.14600
C361        C  0.08471783  0.19756063  0.74676310     1.05400
O362        O  0.16808906  0.19449812  0.65784499    -0.94200
O363        O  0.17781368  0.27151763  0.64450561    -0.89900
O364        O  0.23692708  0.27025015  0.65984573    -0.83100
C365        C  0.21208539  0.27821804  0.63763954     1.12100
O366        O  0.08051685  0.33090695  0.77778152    -0.96200
Zr367      Zr  0.13965826  0.32610783  0.74776503     1.88900
O368        O  0.21888100  0.34619765  0.68945037    -0.72800
O369        O  0.09667482  0.24699598  0.66027017    -0.52100
O370        O  0.08958715  0.33897992  0.70657714    -0.96800
O371        O  0.13914407  0.37852400  0.77926872    -0.54000
O372        O  0.16178916  0.36424058  0.70341008    -0.73300
C373        C  0.19208662  0.36656245  0.68636310     0.99000
O374        O  0.28731569  0.30407549  0.67986660    -0.62200
O375        O  0.27178538  0.28632414  0.85499880    -0.57000
O376        O  0.28733939  0.30934655  0.75028229    -0.93700
O377        O  0.26656573  0.33844220  0.79620223    -0.92100
O378        O  0.27666286  0.19886501  0.81193728    -0.92400
O379        O  0.28896099  0.20499165  0.73766698    -0.91200
C380        C  0.28836840  0.33507107  0.76926345     1.17800
H381        H  0.20499741  0.22957837  0.83468630     0.33800
H382        H  0.22944798  0.22457393  0.69432533     0.44600
H383        H  0.21201333  0.34858414  0.76170538     0.38200
H384        H  0.09380783  0.27124044  0.73737783     0.34600
H385        H  0.19998058  0.15851535  0.72615683     0.26400
H386        H  0.09082555  0.27080457  0.66195875     0.32400
H387        H  0.09693153  0.32844794  0.68400844     0.38300
H388        H  0.28568400  0.17651348  0.80592782     0.32700
H389        H  0.27205213  0.26196088  0.85722419     0.31600
H390        H  0.21114040  0.36516796  0.83969798     0.33300
H391        H  0.16520048  0.38551807  0.78063232     0.32300
H392        H  0.29704544  0.22784087  0.73253174     0.36300
H393        H  0.29427111  0.32740228  0.68320087     0.29000
H394        H  0.07637849  0.20692666  0.83133178     0.33200
H395        H  0.07652074  0.30906744  0.78909919     0.36100
H396        H  0.29331598  0.29141193  0.83986939     0.28700
H397        H  0.30784913  0.29096150  0.69026068     0.41600
H398        H  0.18875198  0.20309132  0.64343516     0.31600
H399        H  0.24089338  0.16204793  0.71392262     0.39200
H400        H  0.13269274  0.37269072  0.80410076     0.31100
H401        H  0.10551179  0.24416811  0.63559287     0.31100
H402        H  0.06188913  0.24333500  0.82533016     0.31400
Zr403      Zr  0.13496459  0.79300156  0.79413445     2.17500
O404        O  0.07436266  0.80552276  0.81844940    -0.50900
O405        O  0.14886067  0.84500359  0.82153983    -0.74100
O406        O  0.12826433  0.77013470  0.85264858    -0.80900
O407        O  0.10947934  0.83872230  0.71203642    -0.82700
O408        O  0.18684202  0.76512843  0.87010943    -0.78300
O409        O  0.08392370  0.81276722  0.75876164    -0.89900
O410        O  0.20679952  0.86218979  0.80996675    -0.75900
O411        O  0.19750000  0.79150926  0.81356991    -0.85400
O412        O  0.16952282  0.82376232  0.75157478    -0.85100
O413        O  0.14916142  0.73503682  0.79995101    -0.71800
O414        O  0.12203863  0.76697737  0.73864235    -0.84000
Zr415      Zr  0.23476197  0.73732029  0.71910899     2.26400
Zr416      Zr  0.21277166  0.73402262  0.81823971     2.06300
Zr417      Zr  0.15750658  0.79727187  0.69561377     2.10000
Zr418      Zr  0.23198910  0.82100227  0.77049410     1.78800
O419        O  0.10339499  0.79036199  0.65793573    -0.92800
O420        O  0.27791924  0.82717972  0.81750317    -0.40600
O421        O  0.22110482  0.79504615  0.71431050    -0.77200
O422        O  0.24882441  0.76391170  0.77471275    -0.95900
O423        O  0.20056535  0.70748795  0.76254675    -0.89200
O424        O  0.17191722  0.73920223  0.70016156    -0.92000
C425        C  0.17516485  0.86573397  0.82442465     1.01700
C426        C  0.08532729  0.83708469  0.73713251     1.14600
C427        C  0.15319272  0.77446309  0.87591997     1.05400
O428        O  0.26651750  0.73641582  0.85724238    -0.94200
O429        O  0.25456183  0.68812495  0.79963302    -0.89900
O430        O  0.28301019  0.71152310  0.75287412    -0.83100
C431        C  0.27870293  0.68758873  0.77445945     1.12100
O432        O  0.07903847  0.70771157  0.77438153    -0.96200
Zr433      Zr  0.13801412  0.70983087  0.74374408     1.88900
O434        O  0.22122514  0.68433076  0.69344476    -0.72800
O435        O  0.18873115  0.68955699  0.85532131    -0.52100
O436        O  0.12764443  0.65609934  0.77121124    -0.96800
O437        O  0.09202047  0.70347519  0.69684482    -0.54000
O438        O  0.16464947  0.66581730  0.70877678    -0.73300
C439        C  0.19565938  0.66267611  0.69297013     0.99000
O440        O  0.29109079  0.72834157  0.68512443    -0.62200
O441        O  0.17846917  0.84434606  0.66067294    -0.57000
O442        O  0.24350535  0.76375992  0.66222391    -0.93700
O443        O  0.18633011  0.77245871  0.64187968    -0.92100
O444        O  0.23428587  0.87330733  0.73818049    -0.92400
O445        O  0.29288355  0.83067670  0.74554306    -0.91200
C446        C  0.21944630  0.76125739  0.63763586     1.17800
H447        H  0.16210478  0.84665681  0.75099941     0.33800
H448        H  0.27471988  0.76300659  0.78087092     0.44600
H449        H  0.16827465  0.72783979  0.67792445     0.38200
H450        H  0.13424807  0.72350592  0.81722028     0.34600
H451        H  0.28320268  0.85112598  0.81802994     0.26400
H452        H  0.21091174  0.67816959  0.86482874     0.32400
H453        H  0.14634858  0.65455732  0.79043011     0.38300
H454        H  0.24536844  0.88905031  0.75513048     0.32700
H455        H  0.15554313  0.85532996  0.65235678     0.31600
H456        H  0.11170076  0.79671354  0.63380008     0.33300
H457        H  0.10634276  0.70110472  0.67466047     0.32300
H458        H  0.29123990  0.82254004  0.72081273     0.36300
H459        H  0.31113650  0.73919742  0.69858555     0.29000
H460        H  0.07898932  0.81789761  0.84061116     0.33200
H461        H  0.06332493  0.72424659  0.76198786     0.36100
H462        H  0.18891161  0.85963212  0.67846311     0.28700
H463        H  0.29651897  0.70440041  0.68673832     0.41600
H464        H  0.27742427  0.75834100  0.85241015     0.31600
H465        H  0.26436224  0.82281702  0.83984287     0.39200
H466        H  0.08009908  0.72541431  0.69460598     0.31100
H467        H  0.17780007  0.70054481  0.87621499     0.31100
H468        H  0.06403291  0.78408778  0.82624777     0.31400
Zr469      Zr  0.72626140  0.23709954  0.79840380     2.17500
O470        O  0.76387351  0.22660683  0.85147805    -0.50900
O471        O  0.75840129  0.18562349  0.78748038    -0.74100
O472        O  0.69277845  0.21401485  0.84704426    -0.80900
O473        O  0.80401362  0.27534150  0.75536227    -0.82700
O474        O  0.64417018  0.18918262  0.82109505    -0.78300
O475        O  0.77728405  0.27315778  0.80803408    -0.89900
O476        O  0.74133006  0.16455890  0.73443294    -0.75900
O477        O  0.68343303  0.20523946  0.76520186    -0.85400
O478        O  0.74715678  0.23868567  0.73816169    -0.85100
O479        O  0.66684604  0.26193297  0.80921001    -0.71800
O480        O  0.72911150  0.29461047  0.78255369    -0.84000
Zr481      Zr  0.64720031  0.28894048  0.69765436     2.26400
Zr482      Zr  0.62404833  0.23045940  0.77411056     2.06300
Zr483      Zr  0.74892941  0.29640145  0.72130558     2.10000
Zr484      Zr  0.70441487  0.20705306  0.70537459     1.78800
O485        O  0.78680547  0.34416969  0.73463861    -0.92800
O486        O  0.66761522  0.15712866  0.69927767    -0.40600
O487        O  0.70606323  0.26397316  0.68716897    -0.77200
O488        O  0.64482128  0.23103200  0.71320828    -0.95900
O489        O  0.62659939  0.28764224  0.75782041    -0.89200
O490        O  0.68949881  0.32137665  0.73141091    -0.92000
C491        C  0.75894645  0.16282602  0.76405501     1.01700
C492        C  0.80518963  0.26763985  0.78883211     1.14600
C493        C  0.66993787  0.19042611  0.84517565     1.05400
O494        O  0.58726394  0.18323659  0.75621263    -0.94200
O495        O  0.57030667  0.25923097  0.74367700    -0.89900
O496        O  0.59014486  0.26173390  0.68780942    -0.83100
C497        C  0.56524645  0.26715119  0.71041594     1.12100
O498        O  0.68902621  0.32290283  0.85338987    -0.96200
Zr499      Zr  0.66964172  0.31857847  0.79145141     1.88900
O500        O  0.61730174  0.34139324  0.70881065    -0.72800
O501        O  0.58035969  0.23799626  0.82242778    -0.52100
O502        O  0.61977124  0.33051200  0.83249554    -0.96800
O503        O  0.70569974  0.36881335  0.79785545    -0.54000
O504        O  0.62916163  0.35917476  0.76458849    -0.73300
C505        C  0.61409127  0.36245690  0.73387752     0.99000
O506        O  0.61211285  0.29921103  0.64294735    -0.62200
O507        O  0.78814736  0.28589482  0.67018919    -0.57000
O508        O  0.68513714  0.30709240  0.64922982    -0.93700
O509        O  0.72865163  0.33770214  0.67469832    -0.92100
O510        O  0.75711243  0.19765487  0.66671311    -0.92400
O511        O  0.68882780  0.20065431  0.64266856    -0.91200
C512        C  0.70325513  0.33378214  0.65081805     1.17800
H513        H  0.77095552  0.22828054  0.73569590     0.33800
H514        H  0.62848221  0.21812853  0.69857737     0.44600
H515        H  0.68887703  0.34422197  0.72399671     0.38200
H516        H  0.65950474  0.26174885  0.83387433     0.34600
H517        H  0.65470724  0.15485923  0.72231399     0.26400
H518        H  0.56367796  0.21878952  0.82081668     0.32400
H519        H  0.60550222  0.30977014  0.83378342     0.38300
H520        H  0.77809393  0.19243979  0.68276214     0.32700
H521        H  0.79875473  0.26372570  0.67482049     0.31600
H522        H  0.80321424  0.34640347  0.71379085     0.33300
H523        H  0.68762134  0.38578785  0.80515769     0.32300
H524        H  0.68063517  0.22286471  0.63471657     0.36300
H525        H  0.61470710  0.32303804  0.63762436     0.29000
H526        H  0.76032390  0.20315727  0.85815081     0.33200
H527        H  0.71141452  0.30892930  0.85522634     0.36100
H528        H  0.77079880  0.28262268  0.65009953     0.28700
H529        H  0.62538971  0.28780422  0.62361726     0.41600
H530        H  0.57902464  0.18846841  0.73164717     0.31600
H531        H  0.64780760  0.16270648  0.68201357     0.39200
H532        H  0.71269902  0.37530835  0.77337031     0.31100
H533        H  0.59475917  0.23412352  0.84452780     0.31100
H534        H  0.75241787  0.23941855  0.87086695     0.31400
Zr535      Zr  0.69862474  0.81372122  0.79603436     2.17500
O536        O  0.69964492  0.86463499  0.83017225    -0.50900
O537        O  0.76167011  0.81662160  0.81701528    -0.74100
O538        O  0.67347707  0.80229647  0.85300278    -0.80900
O539        O  0.73356452  0.85702568  0.71831297    -0.82700
O540        O  0.69199976  0.75119849  0.86320674    -0.78300
O541        O  0.69777780  0.86571830  0.76532839    -0.89900
O542        O  0.79498975  0.77552304  0.79234067    -0.75900
O543        O  0.71559286  0.75744379  0.80651590    -0.85400
O544        O  0.73704341  0.79754113  0.74770827    -0.85100
O545        O  0.64076963  0.78419033  0.80222445    -0.71800
O546        O  0.66264226  0.82446107  0.74366141    -0.84000
Zr547      Zr  0.65824060  0.72198814  0.71118702     2.26400
Zr548      Zr  0.65903473  0.72701338  0.81070480     2.06300
Zr549      Zr  0.70084017  0.80706763  0.69493487     2.10000
Zr550      Zr  0.75283594  0.74156527  0.75821606     1.78800
O551        O  0.67910394  0.85522004  0.66174175    -0.92800
O552        O  0.77944668  0.70704405  0.80525183    -0.40600
O553        O  0.71654502  0.74958484  0.70506380    -0.77200
O554        O  0.69690414  0.71004245  0.76197843    -0.95900
O555        O  0.62807232  0.74156350  0.75939951    -0.89200
O556        O  0.64234108  0.77828310  0.69951905    -0.92000
C557        C  0.79210616  0.80142147  0.81155275     1.01700
C558        C  0.72509717  0.87386817  0.74621171     1.14600
C559        C  0.69146527  0.78198162  0.87184194     1.05400
O560        O  0.68676678  0.67851304  0.83886823    -0.94200
O561        O  0.62317364  0.67811170  0.78761322    -0.89900
O562        O  0.64938497  0.66770520  0.73455985    -0.83100
C563        C  0.62700413  0.66027740  0.75922886     1.12100
O564        O  0.59137788  0.84520892  0.77926971    -0.96200
Zr565      Zr  0.60675227  0.79407322  0.74904795     1.88900
O566        O  0.59430783  0.72244184  0.69091615    -0.72800
O567        O  0.61026113  0.72557944  0.85501413    -0.52100
O568        O  0.55036868  0.79177390  0.78391086    -0.96800
O569        O  0.58445365  0.83163656  0.70258348    -0.54000
O570        O  0.56119138  0.76105615  0.71980637    -0.73300
C571        C  0.56371802  0.73651471  0.69886029     0.99000
O572        O  0.65194688  0.67255953  0.67509361    -0.62200
O573        O  0.75514411  0.80324440  0.65730650    -0.57000
O574        O  0.69093361  0.73160003  0.65687721    -0.93700
O575        O  0.67705430  0.78211868  0.63924173    -0.92100
O576        O  0.80617511  0.75197561  0.72075803    -0.92400
O577        O  0.77644212  0.69121432  0.73159109    -0.91200
C578        C  0.67579102  0.75076042  0.63429583     1.17800
H579        H  0.75955923  0.81008658  0.74672725     0.33800
H580        H  0.70349397  0.68698991  0.76423311     0.44600
H581        H  0.62693277  0.78053437  0.67863687     0.38200
H582        H  0.62398866  0.79108199  0.82062513     0.34600
H583        H  0.77926084  0.72090189  0.82683671     0.26400
H584        H  0.61813831  0.70835818  0.87230532     0.32400
H585        H  0.55853725  0.79005501  0.80903435     0.38300
H586        H  0.79825304  0.76988461  0.70436752     0.32700
H587        H  0.74777271  0.81398788  0.63460143     0.31600
H588        H  0.68820346  0.85190112  0.63723828     0.33300
H589        H  0.57634637  0.81746502  0.68270889     0.32300
H590        H  0.77025868  0.69338170  0.70597771     0.36300
H591        H  0.63427493  0.67839180  0.65592418     0.29000
H592        H  0.71747157  0.86083610  0.84976621     0.33200
H593        H  0.61340002  0.85034442  0.79383905     0.36100
H594        H  0.77308931  0.81862421  0.66804955     0.28700
H595        H  0.67591625  0.66951185  0.66310404     0.41600
H596        H  0.66800316  0.67037865  0.85578314     0.31600
H597        H  0.76060265  0.68999594  0.80995041     0.39200
H598        H  0.60678628  0.84285926  0.69363632     0.31100
H599        H  0.61292808  0.74650701  0.86817863     0.31100
H600        H  0.67525595  0.86614315  0.84172945     0.31400
C601        C  0.43501208  0.66142664  0.66268748     0.80600
N602        N  0.41028565  0.65838513  0.68916701    -0.77700
C603        C  0.38377456  0.63494546  0.68900052     0.83100
N604        N  0.38201103  0.61365589  0.66080589    -0.77600
C605        C  0.40681405  0.61673721  0.63342337     0.83100
N606        N  0.43302650  0.64054824  0.63479467    -0.79400
C607        C  0.23546637  0.48460695  0.61655258     0.80600
N608        N  0.22285942  0.51331256  0.63034917    -0.77700
C609        C  0.24217023  0.54170777  0.62654369     0.83100
N610        N  0.27491125  0.54106957  0.60921319    -0.77600
C611        C  0.28769289  0.51245123  0.59555323     0.83100
N612        N  0.26782022  0.48456908  0.59881021    -0.79400
C613        C  0.45487329  0.36034795  0.65673211     0.80600
N614        N  0.42709921  0.36175942  0.68024716    -0.77700
C615        C  0.39837315  0.38263111  0.67689422     0.83100
N616        N  0.39717881  0.40320246  0.64753764    -0.77600
C617        C  0.42460524  0.40217565  0.62195325     0.83100
N618        N  0.45380668  0.38058310  0.62707945    -0.79400
C619        C  0.55472251  0.48869106  0.68911204     0.80600
N620        N  0.53591619  0.49186754  0.65800523    -0.77700
C621        C  0.52812135  0.52196502  0.64379934     0.83100
N622        N  0.53907856  0.54987078  0.66152794    -0.77600
C623        C  0.55834410  0.54696998  0.69305747     0.83100
N624        N  0.56574202  0.51631966  0.70614092    -0.79400
C625        C  0.47250750  0.39244741  0.32517595     0.80600
N626        N  0.43939510  0.38451557  0.31145924    -0.77700
C627        C  0.40750017  0.39409295  0.32630786     0.83100
N628        N  0.40847020  0.41285998  0.35648594    -0.77600
C629        C  0.44167606  0.42263067  0.37078491     0.83100
N630        N  0.47392250  0.41154991  0.35533184    -0.79400
C631        C  0.60799412  0.49957151  0.36924869     0.80600
N632        N  0.62977062  0.52628529  0.36360797    -0.77700
C633        C  0.62250325  0.55607177  0.37847912     0.83100
N634        N  0.59221108  0.55888206  0.40004363    -0.77600
C635        C  0.56985543  0.53218014  0.40587102     0.83100
N636        N  0.57798215  0.50293456  0.39030179    -0.79400
C637        C  0.44988627  0.68735966  0.35857497     0.80600
N638        N  0.45352475  0.65743190  0.37615939    -0.77700
C639        C  0.42639914  0.64694762  0.39929767     0.83100
N640        N  0.39575033  0.66649415  0.40357002    -0.77600
C641        C  0.39171231  0.69578885  0.38556220     0.83100
N642        N  0.41913644  0.70565143  0.36374806    -0.79400
C643        C  0.27948675  0.49436616  0.34013299     0.80600
N644        N  0.26796098  0.52033111  0.32010676    -0.77700
C645        C  0.28351259  0.55056605  0.32331669     0.83100
N646        N  0.31187293  0.55465621  0.34759476    -0.77600
C647        C  0.32367564  0.52803741  0.36786503     0.83100
N648        N  0.30699132  0.49856430  0.36385309    -0.79400
C649        C  0.54861700  0.68846988  0.48262128     0.80600
N650        N  0.53308682  0.65836655  0.48644609    -0.77700
C651        C  0.53737188  0.64047379  0.51690558     0.83100
N652        N  0.55803283  0.65312765  0.54429848    -0.77600
C653        C  0.57350929  0.68387747  0.54048257     0.83100
N654        N  0.56849088  0.70095797  0.50979288    -0.79400
C655        C  0.60427619  0.37761347  0.47969350     0.80600
N656        N  0.62637785  0.37619573  0.50846953    -0.77700
C657        C  0.62055208  0.39421606  0.53794466     0.83100
N658        N  0.59033899  0.41501041  0.53855490    -0.77600
C659        C  0.56652109  0.41703124  0.50963984     0.83100
N660        N  0.57383358  0.39792235  0.48018408    -0.79400
C661        C  0.23998778  0.63504517  0.47948245     0.80600
N662        N  0.27012017  0.61547818  0.48185745    -0.77700
C663        C  0.29555956  0.61968294  0.50782880     0.83100
N664        N  0.29058440  0.64428006  0.53241416    -0.77600
C665        C  0.25930578  0.66357662  0.53085569     0.83100
N666        N  0.23478391  0.65880344  0.50404553    -0.79400
C667        C  0.26583047  0.36653801  0.46395507     0.80600
N668        N  0.25436167  0.35554282  0.49579212    -0.77700
C669        C  0.26959839  0.36548120  0.52642175     0.83100
N670        N  0.29803670  0.38802713  0.52534814    -0.77600
C671        C  0.31003341  0.40081020  0.49310147     0.83100
N672        N  0.29386041  0.38930227  0.46224553    -0.79400
O673        O  0.83815025  0.95361354  0.98334587    -0.86100
O674        O  0.04447606  0.96679220  0.00844732    -0.86300
O675        O  0.94949299  0.92986769  0.93180362    -0.87900
O676        O  0.94262812  0.91315971  0.04714591    -0.86700
O677        O  0.92672485  0.94587405  0.09431244    -0.86300
O678        O  0.95693526  0.97392675  0.89370604    -0.87700
O679        O  0.00594889  0.92437160  0.99283997    -0.86100
O680        O  0.88716564  0.91744508  0.98464517    -0.85700
Zr681      Zr  0.94376911  0.94833795  0.99346902     2.84300
O682        O  0.97236182  0.97931732  0.03821012    -1.07700
O683        O  0.90889455  0.98366549  0.95673829    -1.08400
C684        C  0.85242985  0.92419593  0.98279912     1.07000
C685        C  0.03802249  0.93627530  0.00032213     1.07000
C686        C  0.95443549  0.94277793  0.90058322     1.09900
C687        C  0.93459898  0.91719883  0.08038166     1.07700
H688        H  0.99990312  0.97639711  0.95373440     0.33300
O689        O  0.98185040  0.98798198  0.96767167    -1.28600
H690        H  0.88247123  0.95904090  0.03846718     0.32900
O691        O  0.89828979  0.97516655  0.02736511    -1.30300
O692        O  0.03761467  0.07552494  0.01374411    -0.86100
O693        O  0.82709843  0.06281266  0.98730939    -0.87600
O694        O  0.01205235  0.02331807  0.91068010    -0.86200
O695        O  0.98395419  0.99862035  0.10947613    -0.86200
O696        O  0.86219232  0.00327111  0.09144550    -0.85900
O697        O  0.89326485  0.01474124  0.89243473    -0.85700
O698        O  0.93349260  0.11565399  0.94894393    -0.86100
O699        O  0.92851037  0.10171479  0.07195712    -0.85600
O700        O  0.94744904  0.07867336  0.90485208    -0.86600
O701        O  0.92493175  0.05602614  0.10899729    -0.85800
O702        O  0.04906457  0.02173775  0.96052317    -0.86200
O703        O  0.84259328  0.00446862  0.92704960    -0.85900
O704        O  0.82378517  0.00441687  0.04248704    -0.85600
O705        O  0.03263973  0.01104690  0.07297925    -0.86000
O706        O  0.99108246  0.11397071  0.00808994    -0.86300
O707        O  0.86536806  0.10526113  0.00400639    -0.87600
Zr708      Zr  0.01021696  0.01936851  0.01204237     2.83100
Zr709      Zr  0.86293435  0.01021227  0.98961677     2.83500
Zr710      Zr  0.94756936  0.02279512  0.93016912     2.84100
Zr711      Zr  0.92734484  0.00530588  0.07266547     2.83400
Zr712      Zr  0.93058848  0.08345747  0.00755818     2.84200
O713        O  0.89372117  0.04122360  0.03375366    -1.08200
O714        O  0.97540691  0.05458254  0.97472998    -1.07700
C715        C  0.02591885  0.10577545  0.01033046     1.07000
C716        C  0.83307803  0.09362187  0.99493831     1.09600
C717        C  0.04364711  0.02204414  0.92672965     1.07200
C718        C  0.01882487  0.00272783  0.10341146     1.07500
C719        C  0.82987202  0.00321486  0.07644907     1.07100
C720        C  0.85893741  0.00735198  0.89659137     1.06600
C721        C  0.94088216  0.10830140  0.91573114     1.07100
C722        C  0.92670884  0.08769919  0.10350485     1.06600
H723        H  0.88741821  0.06405765  0.94745186     0.33300
O724        O  0.90188799  0.05032347  0.96339797    -1.29300
H725        H  0.97805741  0.05864496  0.06310753     0.33300
O726        O  0.96490494  0.04638258  0.04521087    -1.30700
O727        O  0.41439848  0.60634087  0.57189593    -0.86100
O728        O  0.43336945  0.42087658  0.55913028    -0.86300
O729        O  0.35228771  0.51306889  0.59115607    -0.87900
O730        O  0.47085088  0.51769634  0.61438332    -0.86700
O731        O  0.52240986  0.52562475  0.58011749    -0.86300
O732        O  0.31599409  0.51052016  0.54091370    -0.87700
O733        O  0.41695075  0.45790709  0.60236563    -0.86100
O734        O  0.40619640  0.56242670  0.60996236    -0.85700
Zr735      Zr  0.41757219  0.51291603  0.57464007     2.84300
O736        O  0.46350992  0.48498258  0.54214750    -1.07700
O737        O  0.38364744  0.54626099  0.53540899    -1.08400
C738        C  0.40821354  0.59363162  0.60309126     1.07000
C739        C  0.42505446  0.42834062  0.59221360     1.07000
C740        C  0.32096705  0.51199463  0.57466823     1.09900
C741        C  0.50573372  0.52280160  0.61055807     1.07700
H742        H  0.37398475  0.46508375  0.54219874     0.33300
O743        O  0.39028759  0.48029832  0.53031818    -1.28600
H744        H  0.46852084  0.56543514  0.56639529     0.32900
O745        O  0.45720419  0.55186993  0.54843358    -1.30300
O746        O  0.43983350  0.43183915  0.43487279    -0.86100
O747        O  0.42267071  0.62052409  0.45609778    -0.87600
O748        O  0.32761261  0.45840816  0.48792138    -0.86200
O749        O  0.53983818  0.47170875  0.51659930    -0.86200
O750        O  0.52866551  0.58137249  0.52194013    -0.85900
O751        O  0.32201387  0.56698595  0.49812331    -0.85700
O752        O  0.38469058  0.53387186  0.39294957    -0.86100
O753        O  0.50496911  0.53255962  0.41338743    -0.85600
O754        O  0.33547743  0.52210070  0.42899755    -0.86600
O755        O  0.54233292  0.53209299  0.46313663    -0.85800
O756        O  0.37435354  0.42037217  0.49519043    -0.86200
O757        O  0.36018764  0.60970331  0.51350840    -0.85900
O758        O  0.47922889  0.61678261  0.51678699    -0.85600
O759        O  0.50081911  0.42913093  0.50190991    -0.86000
O760        O  0.44311735  0.47673863  0.39673761    -0.86300
O761        O  0.43890203  0.58762731  0.40916652    -0.87600
Zr762      Zr  0.43554068  0.45091235  0.49865375     2.83100
Zr763      Zr  0.42219788  0.58616653  0.51060170     2.83500
Zr764      Zr  0.35615719  0.51438268  0.49081897     2.84100
Zr765      Zr  0.50348992  0.52440948  0.51624652     2.83400
Zr766      Zr  0.44000995  0.52849204  0.43193067     2.84200
O767        O  0.46816413  0.55888687  0.47783057    -1.08200
O768        O  0.40268467  0.48725611  0.45921650    -1.07700
C769        C  0.44207615  0.44510275  0.40303163     1.07000
C770        C  0.43025459  0.61627033  0.42275578     1.09600
C771        C  0.33935143  0.42814510  0.49171899     1.07200
C772        C  0.53351410  0.44076177  0.50955300     1.07500
C773        C  0.51398090  0.61069035  0.52017624     1.07100
C774        C  0.32809354  0.59738558  0.50722948     1.06600
C775        C  0.34973491  0.52967927  0.39849022     1.07100
C776        C  0.53690127  0.53348672  0.42903514     1.06600
H777        H  0.37957658  0.56941440  0.45070231     0.33300
O778        O  0.39424772  0.55483471  0.46553149    -1.29300
H779        H  0.49164310  0.48161861  0.45827087     0.33300
O780        O  0.47302806  0.49281114  0.47202380    -1.30700
C781        C  0.63334856  0.68613243  0.57370750     0.24000
C782        C  0.59807246  0.69920824  0.56734777    -0.24100
C783        C  0.58994259  0.73106844  0.58004111     0.18900
C784        C  0.61608743  0.74896316  0.59968582     0.23900
C785        C  0.65117931  0.73550403  0.60700425    -0.24100
C786        C  0.65959325  0.70400917  0.59324970     0.18800
F787        F  0.69333298  0.69033356  0.59897342    -0.14000
F788        F  0.64292219  0.65658453  0.55964938    -0.16400
F789        F  0.60648393  0.77894905  0.61261223    -0.16400
F790        F  0.55629953  0.74475618  0.57369829    -0.14000
C791        C  0.60670923  0.57260719  0.73284745     0.24000
C792        C  0.57346284  0.57606087  0.71318378    -0.24100
C793        C  0.55517856  0.60678064  0.71441587     0.18900
C794        C  0.57042085  0.63341140  0.73363595     0.23900
C795        C  0.60449780  0.63022817  0.75177663    -0.24100
C796        C  0.62207804  0.59930630  0.75132567     0.18800
F797        F  0.65558724  0.59546305  0.76709251    -0.14000
F798        F  0.62584343  0.54374339  0.73259697    -0.16400
F799        F  0.55278784  0.66296694  0.73297539    -0.16400
F800        F  0.52267948  0.61114466  0.69691902    -0.14000
C801        C  0.49472065  0.72960589  0.69978953     0.24000
C802        C  0.52916193  0.72213059  0.68448339    -0.24100
C803        C  0.53070027  0.69779292  0.65798553     0.18900
C804        C  0.49961473  0.67937034  0.64928374     0.23900
C805        C  0.46596197  0.68494650  0.66666276    -0.24100
C806        C  0.46351207  0.71125176  0.69091954     0.18800
F807        F  0.43114642  0.71864096  0.70710322    -0.14000
F808        F  0.49135448  0.75335409  0.72490261    -0.16400
F809        F  0.50343208  0.65453494  0.62556012    -0.16400
F810        F  0.56284513  0.69037862  0.64162946    -0.14000
C811        C  0.66127601  0.38056257  0.63202614     0.24000
C812        C  0.69184059  0.36002350  0.62459342    -0.24100
C813        C  0.70241483  0.35710155  0.58899748     0.18900
C814        C  0.68146771  0.37181502  0.56153414     0.23900
C815        C  0.64749866  0.38824806  0.56845501    -0.24100
C816        C  0.63887641  0.39397548  0.60439619     0.18800
F817        F  0.60766618  0.41057203  0.61292753    -0.14000
F818        F  0.65162218  0.38574449  0.66624538    -0.16400
F819        F  0.69370822  0.36808191  0.52770233    -0.16400
F820        F  0.73169435  0.33781692  0.58046959    -0.14000
C821        C  0.52150556  0.31483272  0.71827006     0.24000
C822        C  0.53383244  0.28840861  0.69752030    -0.24100
C823        C  0.52216481  0.28743505  0.66138951     0.18900
C824        C  0.49847274  0.31188842  0.64680927     0.23900
C825        C  0.48635089  0.33833337  0.66770892    -0.24100
C826        C  0.49850532  0.33942764  0.70357443     0.18800
F827        F  0.48857301  0.36509659  0.72449389    -0.14000
F828        F  0.53350861  0.31807290  0.75233746    -0.16400
F829        F  0.48649958  0.30907243  0.61269793    -0.16400
F830        F  0.53387186  0.26269630  0.64001307    -0.14000
C831        C  0.58443672  0.45213899  0.73589760     0.24000
C832        C  0.56522444  0.45547016  0.70326827    -0.24100
C833        C  0.55797154  0.42673653  0.68351885     0.18900
C834        C  0.57194469  0.39619637  0.69461664     0.23900
C835        C  0.59345251  0.39336885  0.72582614    -0.24100
C836        C  0.59810491  0.42149361  0.74712001     0.18800
F837        F  0.61753386  0.41995119  0.77808808    -0.14000
F838        F  0.59127943  0.47864409  0.75674405    -0.16400
F839        F  0.56556373  0.36962384  0.67375063    -0.16400
F840        F  0.53870255  0.42805683  0.65247077    -0.14000
C841        C  0.27679303  0.71103193  0.57177205     0.24000
C842        C  0.25014811  0.68963853  0.55759550    -0.24100
C843        C  0.21296118  0.69464542  0.56731904     0.18900
C844        C  0.20275413  0.71967829  0.59095000     0.23900
C845        C  0.22936330  0.74049486  0.60611786    -0.24100
C846        C  0.26656343  0.73612144  0.59572826     0.18800
F847        F  0.29324882  0.75589924  0.60917537    -0.14000
F848        F  0.31265951  0.70790712  0.56224345    -0.16400
F849        F  0.16696219  0.72176224  0.60104942    -0.16400
F850        F  0.18636702  0.67387375  0.55554631    -0.14000
C851        C  0.36742965  0.65151109  0.75118602     0.24000
C852        C  0.35708482  0.63526704  0.71943341    -0.24100
C853        C  0.31999149  0.62573795  0.71573901     0.18900
C854        C  0.29340434  0.63727068  0.74005505     0.23900
C855        C  0.30330978  0.65910695  0.76758944    -0.24100
C856        C  0.34083629  0.66366771  0.77454957     0.18800
F857        F  0.35152655  0.68440315  0.80081647    -0.14000
F858        F  0.40325446  0.65890405  0.75788821    -0.16400
F859        F  0.25737379  0.63052063  0.73414730    -0.16400
F860        F  0.30885364  0.60820804  0.68702298    -0.14000
C861        C  0.22938319  0.63255295  0.64553291     0.24000
C862        C  0.20375585  0.63195721  0.67350178    -0.24100
C863        C  0.18954403  0.60146256  0.68491091     0.18900
C864        C  0.20165536  0.57215279  0.66938208     0.23900
C865        C  0.22813948  0.57275991  0.64201471    -0.24100
C866        C  0.24154404  0.60340683  0.63006483     0.18800
F867        F  0.26688340  0.60541380  0.60367627    -0.14000
F868        F  0.24350293  0.66149180  0.63359165    -0.16400
F869        F  0.18870107  0.54315340  0.68251101    -0.16400
F870        F  0.16569679  0.59971168  0.71257814    -0.14000
C871        C  0.20273135  0.32375403  0.59066381     0.24000
C872        C  0.22497796  0.29909878  0.60654966    -0.24100
C873        C  0.26282149  0.29846662  0.59700136     0.18900
C874        C  0.27812093  0.32234308  0.57402655     0.23900
C875        C  0.25619075  0.34733047  0.55876067    -0.24100
C876        C  0.21797657  0.34700778  0.56657480     0.18800
F877        F  0.19526863  0.36951278  0.55079249    -0.14000
F878        F  0.16656985  0.32621226  0.59932970    -0.16400
F879        F  0.31419170  0.31979332  0.56502314    -0.16400
F880        F  0.28540022  0.27428708  0.60978987    -0.14000
C881        C  0.18586859  0.45230650  0.64718023     0.24000
C882        C  0.21787682  0.45295888  0.62608447    -0.24100
C883        C  0.23657068  0.42313284  0.61953975     0.18900
C884        C  0.22735303  0.39482206  0.63833292     0.23900
C885        C  0.19758986  0.39490258  0.66220831    -0.24100
C886        C  0.17558356  0.42339175  0.66477982     0.18800
F887        F  0.14602502  0.42433307  0.68675754    -0.14000
F888        F  0.16576780  0.48005291  0.65288013    -0.16400
F889        F  0.24964723  0.36809980  0.63502360    -0.16400
F890        F  0.26603271  0.42164599  0.59744797    -0.14000
C891        C  0.35265952  0.35581013  0.76409209     0.24000
C892        C  0.31514718  0.36073564  0.75689536    -0.24100
C893        C  0.30581076  0.38046323  0.72688985     0.18900
C894        C  0.33270571  0.39005623  0.70160761     0.23900
C895        C  0.36995570  0.38113819  0.70647353    -0.24100
C896        C  0.37961643  0.36605690  0.73966059     0.18800
F897        F  0.41527158  0.35890502  0.74778916    -0.14000
F898        F  0.36315325  0.33812552  0.79330404    -0.16400
F899        F  0.32169144  0.40536275  0.67110296    -0.16400
F900        F  0.26992306  0.38755140  0.72013689    -0.14000
C901        C  0.16258628  0.21803085  0.91998698     0.24000
C902        C  0.13943712  0.24184217  0.90389125    -0.24100
C903        C  0.10104967  0.23932713  0.91083834     0.18900
C904        C  0.08635308  0.21315229  0.93143691     0.23900
C905        C  0.10949213  0.18918086  0.94705285    -0.24100
C906        C  0.14797014  0.19254979  0.94150230     0.18800
F907        F  0.17180626  0.17130269  0.95779752    -0.14000
F908        F  0.19953017  0.21908337  0.91470919    -0.16400
F909        F  0.04961571  0.21250418  0.93799924    -0.16400
F910        F  0.07744908  0.26274002  0.89815452    -0.14000
C911        C  0.54945589  0.68690440  0.41625323     0.24000
C912        C  0.54943930  0.70540164  0.44772797    -0.24100
C913        C  0.55773496  0.73926754  0.44590338     0.18900
C914        C  0.57190689  0.75294538  0.41471387     0.23900
C915        C  0.57710831  0.73310905  0.38461292    -0.24100
C916        C  0.56303760  0.70066407  0.38489337     0.18800
F917        F  0.56536610  0.68102378  0.35585971    -0.14000
F918        F  0.54014496  0.65448479  0.41643304    -0.16400
F919        F  0.58253850  0.78503764  0.41477361    -0.16400
F920        F  0.55455754  0.75864893  0.47505181    -0.14000
C921        C  0.51011455  0.75141280  0.31109344     0.24000
C922        C  0.52107347  0.73522339  0.27977855    -0.24100
C923        C  0.50887697  0.70218866  0.27539732     0.18900
C924        C  0.48746424  0.68590366  0.30156077     0.23900
C925        C  0.47789688  0.70175332  0.33334382    -0.24100
C926        C  0.48927537  0.73488526  0.33745910     0.18800
F927        F  0.48072756  0.75123560  0.36773648    -0.14000
F928        F  0.52099433  0.78286965  0.31714452    -0.16400
F929        F  0.47505653  0.65493198  0.29523508    -0.16400
F930        F  0.51770349  0.68542987  0.24547643    -0.14000
C931        C  0.66061940  0.64421213  0.37200952     0.24000
C932        C  0.68430892  0.64221526  0.34240574    -0.24100
C933        C  0.69121584  0.61108214  0.32798564     0.18900
C934        C  0.67293255  0.58298928  0.34105372     0.23900
C935        C  0.64657713  0.58522933  0.36884096    -0.24100
C936        C  0.64229530  0.61616653  0.38527876     0.18800
F937        F  0.61898597  0.61985381  0.41310181    -0.14000
F938        F  0.65229605  0.67417629  0.38583973    -0.16400
F939        F  0.67940716  0.55407032  0.32434504    -0.16400
F940        F  0.71246546  0.60835429  0.29850302    -0.14000
C941        C  0.62035320  0.30230597  0.42208481     0.24000
C942        C  0.65405319  0.31001250  0.40488006    -0.24100
C943        C  0.66838002  0.34185857  0.40999053     0.18900
C944        C  0.65020868  0.36479217  0.43204041     0.23900
C945        C  0.61644221  0.35720388  0.44876382    -0.24100
C946        C  0.60192812  0.32549263  0.44357383     0.18800
F947        F  0.57077901  0.31628383  0.46082103    -0.14000
F948        F  0.60523624  0.27190062  0.41843482    -0.16400
F949        F  0.66635000  0.39438049  0.43811311    -0.16400
F950        F  0.69951931  0.35122359  0.39290522    -0.14000
C951        C  0.65917996  0.43318833  0.31771552     0.24000
C952        C  0.63765478  0.40473459  0.32372330    -0.24100
C953        C  0.60543847  0.40803383  0.34425498     0.18900
C954        C  0.59512063  0.43880747  0.35814478     0.23900
C955        C  0.61740895  0.46698457  0.35295061    -0.24100
C956        C  0.64947448  0.46348785  0.33230086     0.18800
F957        F  0.67214635  0.48934116  0.32595868    -0.14000
F958        F  0.69018327  0.43213043  0.29764399    -0.16400
F959        F  0.56317755  0.44076104  0.37666162    -0.16400
F960        F  0.58389398  0.38150510  0.35132183    -0.14000
C961        C  0.52010389  0.31750172  0.28949648     0.24000
C962        C  0.54528027  0.33017342  0.26444263    -0.24100
C963        C  0.54935515  0.36485907  0.26257954     0.18900
C964        C  0.52851258  0.38595880  0.28495562     0.23900
C965        C  0.50394118  0.37285107  0.31037949    -0.24100
C966        C  0.50079102  0.33827040  0.31255315     0.18800
F967        F  0.47704395  0.32444298  0.33613286    -0.14000
F968        F  0.51403027  0.28450582  0.29183052    -0.16400
F969        F  0.53177527  0.41914073  0.28125905    -0.16400
F970        F  0.57368044  0.37835759  0.23941817    -0.14000
C971        C  0.16375233  0.65780416  0.41612071     0.24000
C972        C  0.18205813  0.65369038  0.38346116    -0.24100
C973        C  0.21467267  0.63471809  0.38286904     0.18900
C974        C  0.23227520  0.62593419  0.41446704     0.23900
C975        C  0.21664910  0.63450729  0.44729995    -0.24100
C976        C  0.18087904  0.64796007  0.44783820     0.18800
F977        F  0.16373473  0.65402187  0.47915872    -0.14000
F978        F  0.13111321  0.67420578  0.41789917    -0.16400
F979        F  0.26673555  0.61290107  0.41248887    -0.16400
F980        F  0.23224415  0.62817857  0.35194104    -0.14000
C981        C  0.28875114  0.60244860  0.28472448     0.24000
C982        C  0.26704647  0.57806810  0.30101173    -0.24100
C983        C  0.22869593  0.57823466  0.29330932     0.18900
C984        C  0.21250536  0.60248382  0.27110220     0.23900
C985        C  0.23402058  0.62743073  0.25562702    -0.24100
C986        C  0.27262492  0.62638575  0.26196839     0.18800
F987        F  0.29496737  0.64911359  0.24654952    -0.14000
F988        F  0.32570102  0.60298308  0.29041603    -0.16400
F989        F  0.17535875  0.60260610  0.26661257    -0.16400
F990        F  0.20616068  0.55587964  0.30902723    -0.14000
C991        C  0.28976406  0.71914092  0.39241771     0.24000
C992        C  0.28811323  0.74911709  0.37273147    -0.24100
C993        C  0.32157901  0.76400755  0.36328021     0.18900
C994        C  0.35537127  0.74790528  0.37017828     0.23900
C995        C  0.35673016  0.71608184  0.38632734    -0.24100
C996        C  0.32343431  0.70288365  0.39906175     0.18800
F997        F  0.32283023  0.67305021  0.41573803    -0.14000
F998        F  0.25826596  0.70405610  0.40299255    -0.16400
F999        F  0.38667483  0.76294748  0.35904229    -0.16400
F1000       F  0.32163655  0.79265664  0.34431411    -0.14000
C1001       C  0.08456963  0.90663191  0.24474405     0.24000
C1002       C  0.12264678  0.90017808  0.25063912    -0.24100
C1003       C  0.14802593  0.91975823  0.23172198     0.18900
C1004       C  0.13559436  0.94397768  0.20699958     0.23900
C1005       C  0.09749418  0.94895615  0.20003709    -0.24100
C1006       C  0.07234702  0.92975821  0.21917815     0.18800
F1007       F  0.03562258  0.93355019  0.21340756    -0.14000
F1008       F  0.05861775  0.88999362  0.26350861    -0.16400
F1009       F  0.16097085  0.96176076  0.18870883    -0.16400
F1010       F  0.18479540  0.91478964  0.23610573    -0.14000
C1011       C  0.23902729  0.29159901  0.41353097     0.24000
C1012       C  0.20526150  0.30082409  0.39758341    -0.24100
C1013       C  0.19395585  0.33405240  0.40028637     0.18900
C1014       C  0.21581967  0.35715575  0.41875780     0.23900
C1015       C  0.25031715  0.34805279  0.43338168    -0.24100
C1016       C  0.26160067  0.31495250  0.43010125     0.18800
F1017       F  0.29356439  0.30458361  0.44557244    -0.14000
F1018       F  0.25048050  0.25963975  0.41284851    -0.16400
F1019       F  0.20239264  0.38801607  0.42400449    -0.16400
F1020       F  0.16192276  0.34428984  0.38493952    -0.14000
C1021       C  0.35164744  0.38849587  0.28605806     0.24000
C1022       C  0.37448053  0.37597861  0.31356036    -0.24100
C1023       C  0.37407472  0.34188577  0.32032593     0.18900
C1024       C  0.35262968  0.32068991  0.29978076     0.23900
C1025       C  0.32859923  0.33286880  0.27296476    -0.24100
C1026       C  0.32831276  0.36725129  0.26639573     0.18800
F1027       F  0.30533933  0.38033826  0.24137981    -0.14000
F1028       F  0.35253939  0.42113189  0.27779558    -0.16400
F1029       F  0.35574243  0.28774425  0.30615712    -0.16400
F1030       F  0.39657611  0.32866687  0.34574867    -0.14000
C1031       C  0.20991053  0.42866417  0.31801545     0.24000
C1032       C  0.23112028  0.39977679  0.32218592    -0.24100
C1033       C  0.26664343  0.40194087  0.33720790     0.18900
C1034       C  0.28209352  0.43272957  0.34401239     0.23900
C1035       C  0.26200569  0.46180408  0.33654136    -0.24100
C1036       C  0.22521488  0.45937860  0.32505805     0.18800
F1037       F  0.20396074  0.48671854  0.32043311    -0.14000
F1038       F  0.17439158  0.42726335  0.30660390    -0.16400
F1039       F  0.31743058  0.43399631  0.35601083    -0.16400
F1040       F  0.28733319  0.37449886  0.34347622    -0.14000
C1041       C  0.13587348  0.23361470  0.08905691     0.24000
C1042       C  0.16516573  0.22126206  0.11002006    -0.24100
C1043       C  0.17126752  0.18685262  0.11088644     0.18900
C1044       C  0.14871989  0.16556443  0.09061064     0.23900
C1045       C  0.11874705  0.17828375  0.07072489    -0.24100
C1046       C  0.11239042  0.21250108  0.07093511     0.18800
F1047       F  0.08488428  0.22589968  0.05072377    -0.14000
F1048       F  0.12941499  0.26662238  0.08665408    -0.16400
F1049       F  0.15679614  0.13287588  0.08949786    -0.16400
F1050       F  0.19841180  0.17387093  0.13172206    -0.14000
C1051       C  0.08756273  0.09645072  0.16215315     0.24000
C1052       C  0.10556148  0.06690450  0.17237462    -0.24100
C1053       C  0.13909920  0.06872927  0.19109140     0.18900
C1054       C  0.15346894  0.09909829  0.20087665     0.23900
C1055       C  0.13516119  0.12871078  0.19141140    -0.24100
C1056       C  0.10238758  0.12697197  0.17124391     0.18800
F1057       F  0.08372548  0.15467454  0.16125094    -0.14000
F1058       F  0.05478618  0.09608091  0.14454624    -0.16400
F1059       F  0.18504118  0.09909322  0.22045358    -0.16400
F1060       F  0.15818522  0.04106041  0.20037950    -0.14000
C1061       C  0.84167460  0.16416855  0.18864486     0.24000
C1062       C  0.86248447  0.14026874  0.20650574    -0.24100
C1063       C  0.85919516  0.13793036  0.24398798     0.18900
C1064       C  0.83639318  0.16001579  0.26315859     0.23900
C1065       C  0.81809006  0.18607122  0.24533454    -0.24100
C1066       C  0.82150414  0.18743748  0.20758069     0.18800
F1067       F  0.80722769  0.21270926  0.18819852    -0.14000
F1068       F  0.84512986  0.16820222  0.15285999    -0.16400
F1069       F  0.83542288  0.15793554  0.29917633    -0.16400
F1070       F  0.88037610  0.11583736  0.26222582    -0.14000
C1071       C  0.03684864  0.16941755  0.24102897     0.24000
C1072       C  0.03608994  0.20374996  0.23419859    -0.24100
C1073       C  0.01252065  0.21540081  0.20677259     0.18900
C1074       C  0.99051708  0.19371242  0.18698529     0.23900
C1075       C  0.99090913  0.15959571  0.19396866    -0.24100
C1076       C  0.01398602  0.14773917  0.22159125     0.18800
F1077       F  0.01364452  0.11518792  0.23036043    -0.14000
F1078       F  0.06026508  0.15667381  0.26589104    -0.16400
F1079       F  0.96719024  0.20637479  0.16196843    -0.16400
F1080       F  0.01031333  0.24818294  0.19927756    -0.14000
C1081       C  0.67318247  0.93570773  0.18373388     0.24000
C1082       C  0.67287174  0.90489922  0.16723594    -0.24100
C1083       C  0.69364266  0.90129576  0.13570991     0.18900
C1084       C  0.71612522  0.92712141  0.12263300     0.23900
C1085       C  0.71858196  0.95737970  0.14089542    -0.24100
C1086       C  0.69559471  0.96134406  0.17110571     0.18800
F1087       F  0.69653706  0.98929259  0.19066326    -0.14000
F1088       F  0.65508028  0.93979497  0.21493089    -0.16400
F1089       F  0.73654016  0.92183325  0.09304418    -0.16400
F1090       F  0.69480644  0.87151450  0.11941568    -0.14000
C1091       C  0.75733336  0.13212484  0.15711854     0.24000
C1092       C  0.74003763  0.13269929  0.19065653    -0.24100
C1093       C  0.73421378  0.10248356  0.20850514     0.18900
C1094       C  0.74322116  0.07254891  0.19242769     0.23900
C1095       C  0.75880666  0.07187437  0.15822066    -0.24100
C1096       C  0.76705510  0.10206590  0.14128647     0.18800
F1097       F  0.78297551  0.10256196  0.10866472    -0.14000
F1098       F  0.76345929  0.16054052  0.13885156    -0.16400
F1099       F  0.73697277  0.04411654  0.21070165    -0.16400
F1100       F  0.71977327  0.10175508  0.24176247    -0.14000
C1101       C  0.02036348  0.75671208  0.13727065     0.24000
C1102       C  0.05621794  0.76913713  0.13527867    -0.24100
C1103       C  0.06147927  0.79945237  0.11711477     0.18900
C1104       C  0.03132388  0.81959646  0.10734544     0.23900
C1105       C  0.99511251  0.80942006  0.11471105    -0.24100
C1106       C  0.99011669  0.77649153  0.12700684     0.18800
F1107       F  0.95577441  0.76423347  0.13211131    -0.14000
F1108       F  0.01425991  0.72739478  0.15391690    -0.16400
F1109       F  0.03789624  0.85038351  0.09449635    -0.16400
F1110       F  0.09601334  0.81189221  0.11408911    -0.14000
C1111       C  0.86494967  0.80363451  0.16608943     0.24000
C1112       C  0.87774558  0.83648536  0.16859847    -0.24100
C1113       C  0.86706042  0.85487904  0.19834512     0.18900
C1114       C  0.84429664  0.84082251  0.22475449     0.23900
C1115       C  0.83139389  0.80782675  0.22220582    -0.24100
C1116       C  0.84223574  0.78956342  0.19236493     0.18800
F1117       F  0.82960154  0.75841745  0.18767598    -0.14000
F1118       F  0.87422664  0.78500621  0.13761955    -0.16400
F1119       F  0.83497902  0.85968647  0.25305697    -0.16400
F1120       F  0.87979910  0.88604832  0.20265153    -0.14000
C1121       C  0.13502434  0.89813083  0.86518197     0.24000
C1122       C  0.16675166  0.89648241  0.84381091    -0.24100
C1123       C  0.18672084  0.92557994  0.83725725     0.18900
C1124       C  0.17329558  0.95597650  0.84896490     0.23900
C1125       C  0.14048078  0.95774875  0.86892702    -0.24100
C1126       C  0.12221338  0.92821340  0.87769475     0.18800
F1127       F  0.09105378  0.92815054  0.89754614    -0.14000
F1128       F  0.11518090  0.87070481  0.87298441    -0.16400
F1129       F  0.19165690  0.98365927  0.83908725    -0.16400
F1130       F  0.21808618  0.92509641  0.81770433    -0.14000
C1131       C  0.13082694  0.10857360  0.88692631     0.24000
C1132       C  0.14940979  0.07887695  0.87954075    -0.24100
C1133       C  0.18185453  0.07996545  0.85919178     0.18900
C1134       C  0.19227731  0.10933715  0.84245472     0.23900
C1135       C  0.17027715  0.13789361  0.84585366    -0.24100
C1136       C  0.14017145  0.13727577  0.86923024     0.18800
F1137       F  0.11767675  0.16377783  0.87326222    -0.14000
F1138       F  0.10155223  0.10977219  0.90926586    -0.16400
F1139       F  0.22239384  0.10903469  0.82114840    -0.16400
F1140       F  0.20258881  0.05248489  0.85402026    -0.14000
C1141       C  0.85583946  0.86251451  0.85615057     0.24000
C1142       C  0.89000518  0.85348254  0.84157741    -0.24100
C1143       C  0.89272308  0.82384647  0.82263062     0.18900
C1144       C  0.86124502  0.80559674  0.81473884     0.23900
C1145       C  0.82627943  0.81634144  0.82623588    -0.24100
C1146       C  0.82432073  0.84420610  0.84851304     0.18800
F1147       F  0.79160055  0.85523312  0.86117394    -0.14000
F1148       F  0.85214996  0.89050842  0.87548090    -0.16400
F1149       F  0.86506099  0.77856390  0.79395804    -0.16400
F1150       F  0.92586640  0.81291644  0.81080844    -0.14000
C1151       C  0.99504727  0.87806502  0.75601101     0.24000
C1152       C  0.00430614  0.89354317  0.78845864    -0.24100
C1153       C  0.04181312  0.89876110  0.79597042     0.18900
C1154       C  0.06908693  0.88526586  0.77391142     0.23900
C1155       C  0.05962655  0.86467829  0.74526343    -0.24100
C1156       C  0.02233088  0.86280660  0.73530058     0.18800
F1157       F  0.01197375  0.84375990  0.70747095    -0.14000
F1158       F  0.95921452  0.87537762  0.74581684    -0.16400
F1159       F  0.10497046  0.88902790  0.78304797    -0.16400
F1160       F  0.05225078  0.91365474  0.82659793    -0.14000
C1161       C  0.87183495  0.19553063  0.80048354     0.24000
C1162       C  0.88259270  0.19717629  0.83669192    -0.24100
C1163       C  0.86880901  0.22358387  0.85683702     0.18900
C1164       C  0.84467335  0.24725604  0.84117042     0.23900
C1165       C  0.83509438  0.24601700  0.80451018    -0.24100
C1166       C  0.84923559  0.21973196  0.78458909     0.18800
F1167       F  0.83983817  0.21641859  0.74980289    -0.14000
F1168       F  0.88314149  0.16990611  0.78015136    -0.16400
F1169       F  0.83072016  0.27153507  0.86189379    -0.16400
F1170       F  0.87974065  0.22725822  0.89116511    -0.14000
C1171       C  0.03706367  0.14273601  0.81134126     0.24000
C1172       C  0.00024716  0.15127267  0.80354853    -0.24100
C1173       C  0.99282834  0.16522817  0.76941551     0.18900
C1174       C  0.02141312  0.17545168  0.74687245     0.23900
C1175       C  0.05831499  0.17094879  0.75672469    -0.24100
C1176       C  0.06563701  0.15201692  0.78783252     0.18800
F1177       F  0.10096535  0.14598246  0.79763759    -0.14000
F1178       F  0.04590208  0.12848426  0.84309309    -0.16400
F1179       F  0.01300889  0.19392795  0.71763207    -0.16400
F1180       F  0.95776337  0.17188506  0.75881499    -0.14000
C1181       C  0.78369275  0.89745620  0.77285063     0.24000
C1182       C  0.74755449  0.90219170  0.75942651    -0.24100
C1183       C  0.72973948  0.93221256  0.76671466     0.18900
C1184       C  0.74717760  0.95673847  0.78675974     0.23900
C1185       C  0.78297178  0.95195701  0.80079343    -0.24100
C1186       C  0.80126869  0.92217020  0.79318186     0.18800
F1187       F  0.83661801  0.91761445  0.80413075    -0.14000
F1188       F  0.80159311  0.86855147  0.76718379    -0.16400
F1189       F  0.72877621  0.98542618  0.79261447    -0.16400
F1190       F  0.69489503  0.93766752  0.75466099    -0.14000
C1191       C  0.78942476  0.07303352  0.76437281     0.24000
C1192       C  0.80708653  0.07040673  0.79780367    -0.24100
C1193       C  0.81423442  0.09950863  0.81683514     0.18900
C1194       C  0.80039246  0.12974409  0.80486823     0.23900
C1195       C  0.77977876  0.13204333  0.77297903    -0.24100
C1196       C  0.77643970  0.10357004  0.75186423     0.18800
F1197       F  0.75894334  0.10468730  0.71984973    -0.14000
F1198       F  0.78321918  0.04591053  0.74423229    -0.16400
F1199       F  0.80558768  0.15637892  0.82593009    -0.16400
F1200       F  0.83252544  0.09877327  0.84846234    -0.14000
C1201       C  0.11387992  0.89680634  0.10444374     0.24000
C1202       C  0.13609769  0.89227976  0.07432528    -0.24100
C1203       C  0.17129812  0.87833651  0.07859475     0.18900
C1204       C  0.18171771  0.86428083  0.11115109     0.23900
C1205       C  0.15693071  0.86414873  0.13997957    -0.24100
C1206       C  0.12383806  0.88230648  0.13676713     0.18800
F1207       F  0.09902069  0.88317691  0.16359802    -0.14000
F1208       F  0.08037772  0.91172613  0.10187705    -0.16400
F1209       F  0.21455693  0.84817383  0.11312001    -0.16400
F1210       F  0.19455529  0.87618728  0.05051030    -0.14000
C1211       C  0.09268038  0.82235030  0.94080554     0.24000
C1212       C  0.11834688  0.84299287  0.95753597    -0.24100
C1213       C  0.15614954  0.83788801  0.95044709     0.18900
C1214       C  0.16790286  0.81398649  0.92597735     0.23900
C1215       C  0.14219936  0.79429505  0.90786249    -0.24100
C1216       C  0.10436947  0.79835630  0.91638706     0.18800
F1217       F  0.07828870  0.77952449  0.90043648    -0.14000
F1218       F  0.05625220  0.82502987  0.94838691    -0.16400
F1219       F  0.20436312  0.81160654  0.91853699    -0.16400
F1220       F  0.18191200  0.85724679  0.96608936    -0.14000
C1221       C  0.70915869  0.17531297  0.06346531     0.24000
C1222       C  0.74657526  0.17570891  0.05277503    -0.24100
C1223       C  0.76925525  0.20025372  0.06688348     0.18900
C1224       C  0.75501066  0.22405432  0.09031940     0.23900
C1225       C  0.71765518  0.22343378  0.10205246    -0.24100
C1226       C  0.69517851  0.19816801  0.08840078     0.18800
F1227       F  0.66012025  0.19460451  0.10015591    -0.14000
F1228       F  0.68603022  0.15226745  0.04995669    -0.16400
F1229       F  0.77847174  0.24771291  0.10191747    -0.16400
F1230       F  0.80514089  0.20201785  0.05702894    -0.14000
C1231       C  0.66456140  0.16902699  0.90705604     0.24000
C1232       C  0.67687190  0.16401640  0.87226294    -0.24100
C1233       C  0.70820851  0.14373372  0.86765779     0.18900
C1234       C  0.72994558  0.13314247  0.89699435     0.23900
C1235       C  0.71975277  0.14123162  0.93203242    -0.24100
C1236       C  0.68523049  0.15753405  0.93642199     0.18800
F1237       F  0.67235030  0.16481603  0.96930837    -0.14000
F1238       F  0.63441897  0.18818020  0.91280776    -0.16400
F1239       F  0.76243377  0.11762996  0.89072223    -0.16400
F1240       F  0.71999098  0.13723067  0.83426181    -0.14000
C1241       C  0.80159058  0.85808947  0.08957351     0.24000
C1242       C  0.80367309  0.83761670  0.05966803    -0.24100
C1243       C  0.79549896  0.80387895  0.06343790     0.18900
C1244       C  0.78167271  0.79160127  0.09542503     0.23900
C1245       C  0.77533970  0.81295168  0.12419614    -0.24100
C1246       C  0.78763411  0.84588017  0.12159228     0.18800
F1247       F  0.78389354  0.86709551  0.14912239    -0.14000
F1248       F  0.80985797  0.89066931  0.08710252    -0.16400
F1249       F  0.77313678  0.75904733  0.09757199    -0.16400
F1250       F  0.79920980  0.78298802  0.03556518    -0.14000
C1251       C  0.77765482  0.80456261  0.92440283     0.24000
C1252       C  0.76812128  0.83639446  0.93619452    -0.24100
C1253       C  0.73232313  0.84805525  0.92993756     0.18900
C1254       C  0.70644315  0.82830237  0.91260017     0.23900
C1255       C  0.71625352  0.79707094  0.89889329    -0.24100
C1256       C  0.75242881  0.78551138  0.90482200     0.18800
F1257       F  0.76386442  0.75656543  0.89062609    -0.14000
F1258       F  0.81147224  0.79190855  0.93217156    -0.16400
F1259       F  0.67171214  0.84033456  0.90814806    -0.16400
F1260       F  0.72186621  0.87815101  0.94199731    -0.14000
loop_ 
_geom_bond_atom_site_label_1 
_geom_bond_atom_site_label_2 
_geom_bond_distance 
_geom_bond_site_symmetry_2 
_ccdc_geom_bond_type 
C1            N2   1.353       .  A
C1            N6   1.348   1_554  A
C1         C1242   1.473       .  S
N2            C3   1.358   1_554  A
C3            N4   1.372       .  A
C3          C684   1.474       .  S
N4            C5   1.372       .  A
C5            N6   1.349       .  A
C5         C1252   1.475       .  S
C7            N8   1.348   1_554  A
C7           N12   1.376       .  A
C7         C1222   1.505       .  S
N8            C9   1.352       .  A
C9           N10   1.378       .  A
C9         C1235   1.519       .  S
N10          C11   1.383       .  A
C11          N12   1.380   1_556  A
C11         C716   1.527       .  S
C13          N14   1.350       .  A
C13          N18   1.355       .  A
C13        C1202   1.472       .  S
N14          C15   1.352       .  A
C15          N16   1.374   1_554  A
C15         C685   1.479       .  S
N16          C17   1.375       .  A
C17          N18   1.357   1_556  A
C17        C1212   1.498       .  S
C19          N20   1.352       .  A
C19          N24   1.352       .  A
C19        C1192   1.485       .  S
N20          C21   1.357   1_545  A
C21          N22   1.377       .  A
C21        C1185   1.497       .  S
N22          C23   1.376   1_565  A
C23          N24   1.352       .  A
C23         C720   1.482       .  S
C25          N26   1.380       .  A
C25          N30   1.349       .  A
C25        C1162   1.506       .  S
N26          C27   1.384       .  A
C27          N28   1.381       .  A
C27         C721   1.523       .  S
N28          C29   1.371       .  A
C29          N30   1.347       .  A
C29        C1172   1.513   1_655  S
C31          N32   1.350       .  A
C31          N36   1.354       .  A
C31        C1142   1.477       .  S
N32          C33   1.354       .  A
C33          N34   1.370       .  A
C33         C686   1.470       .  S
N34          C35   1.371       .  A
C35          N36   1.358       .  A
C35        C1152   1.498   1_655  S
C37          N38   1.357       .  A
C37          N42   1.351       .  A
C37        C1132   1.474       .  S
N38          C39   1.360   1_545  A
C39          N40   1.361       .  A
C39        C1125   1.484       .  S
N40          C41   1.353   1_565  A
C41          N42   1.342       .  A
C41         C717   1.446       .  S
C43          N44   1.352       .  A
C43          N48   1.378       .  A
C43        C1112   1.502       .  S
N44          C45   1.350       .  A
C45          N46   1.371       .  A
C45        C1105   1.508       .  S
N46          C47   1.377       .  A
C47          N48   1.380       .  A
C47         C687   1.521       .  S
C49          N50   1.355       .  A
C49          N54   1.354       .  A
C49        C1095   1.488       .  S
N50          C51   1.359   1_545  A
C51          N52   1.377       .  A
C51        C1085   1.519       .  S
N52          C53   1.377   1_565  A
C53          N54   1.359       .  A
C53         C719   1.484       .  S
C55          N56   1.348       .  A
C55          N60   1.372       .  A
C55        C1062   1.486       .  S
N56          C57   1.348       .  A
C57          N58   1.375       .  A
C57        C1075   1.492       .  S
N58          C59   1.379       .  A
C59          N60   1.374       .  A
C59         C722   1.516       .  S
Zr61         O62   2.437       .  S
Zr61         O63   2.414       .  S
Zr61         O64   2.387       .  S
Zr61         O67   2.384       .  S
Zr61         O69   2.381       .  S
Zr61         O70   2.401       .  S
Zr61         O71   2.412       .  S
Zr61         O72   2.404       .  S
O62         H118   0.989       .  S
O62         H126   0.990       .  S
O63          C83   1.280       .  A
O64          C85   1.266       .  A
O65         Zr75   2.488       .  S
O65          C84   1.284       .  A
O66         Zr74   2.519       .  S
O66          C85   1.294       .  A
O67          C84   1.266       .  A
O68         Zr76   2.418       .  S
O68          C83   1.283       .  A
O69         Zr74   2.400       .  S
O69         Zr76   2.373       .  S
O70         Zr75   2.422       .  S
O70         Zr76   2.354       .  S
O70         H105   0.965       .  S
O71         Zr74   2.411       .  S
O71         Zr91   2.385       .  S
O71         H108   0.966       .  S
O72         Zr75   2.425       .  S
O72         Zr91   2.385       .  S
Zr73         O98   2.440       .  S
Zr73         O92   2.424       .  S
Zr73        O100   2.398       .  S
Zr73         O88   2.367       .  S
Zr73         O79   2.395       .  S
Zr73         O80   2.431       .  S
Zr73         O81   2.387       .  S
Zr73         O82   2.392       .  S
Zr74         O93   2.437       .  S
Zr74         O86   2.436       .  S
Zr74         O87   2.510       .  S
Zr74         O80   2.422       .  S
Zr74         O81   2.403       .  S
Zr75         O77   2.433       .  S
Zr75         O99   2.434       .  S
Zr75        O101   2.503       .  S
Zr75         O79   2.409       .  S
Zr75         O82   2.409       .  S
Zr76        O102   2.436       .  S
Zr76        O103   2.438       .  S
Zr76         O78   2.438       .  S
Zr76         O79   2.396       .  S
Zr76         O80   2.374       .  S
O77         H114   0.990       .  S
O78         H109   0.990       .  S
O78         H123   0.990       .  S
O80         H106   0.967       .  S
O81         Zr91   2.368       .  S
O82         Zr91   2.363       .  S
O82         H107   0.965       .  S
C83        C1032   1.474       .  S
C84        C1012   1.497       .  S
C85        C1025   1.504       .  S
O86         H122   0.990       .  S
O87          C89   1.290       .  A
O88          C89   1.259       .  A
C89        C1042   1.486       .  S
O90         Zr91   2.438       .  S
O90         H119   0.990       .  S
Zr91         O94   2.435       .  S
Zr91         O95   2.441       .  S
Zr91         O96   2.399       .  S
O92          C97   1.282       .  A
O93         H110   0.989       .  S
O93         H125   0.990       .  S
O94         H111   0.989       .  S
O95         H115   0.990       .  S
O95         H124   0.989       .  S
O96          C97   1.278       .  A
C97        C1055   1.481       .  S
O98         H117   0.990       .  S
O98         H121   0.989       .  S
O99         H113   0.990       .  S
O99         H120   0.990       .  S
O100        C104   1.270       .  A
O101        C104   1.291       .  A
O102        H112   0.990       .  S
O103        H116   0.990       .  S
C104       C1072   1.506       .  S
C127        N128   1.355       .  A
C127        N132   1.350       .  A
C127       C1052   1.479       .  S
N128        C129   1.355   1_545  A
C129        N130   1.380       .  A
C129       C1005   1.503       .  S
N130        C131   1.378   1_565  A
C131        N132   1.352       .  A
C131        C718   1.485       .  S
Zr133       O134   2.436       .  S
Zr133       O135   2.401       .  S
Zr133       O136   2.387       .  S
Zr133       O139   2.379       .  S
Zr133       O142   2.391       .  S
Zr133       O143   2.403       .  S
Zr133       O144   2.398       .  S
Zr133       O141   2.260       .  S
O134        H190   0.989       .  S
O134        H198   0.990       .  S
O135        C155   1.278       .  A
O136        C157   1.266       .  A
O137       Zr147   2.521       .  S
O137        C156   1.295       .  A
O138       Zr146   2.519       .  S
O138        C157   1.294       .  A
O139        C156   1.264       .  A
O140       Zr148   2.430       .  S
O140        C155   1.283       .  A
O141       Zr146   2.307       .  S
O141       Zr148   2.287       .  S
O142       Zr147   2.406       .  S
O142       Zr148   2.362       .  S
O142        H177   0.964       .  S
O143       Zr146   2.415       .  S
O143       Zr163   2.396       .  S
O143        H180   0.955       .  S
O144       Zr147   2.410       .  S
O144       Zr163   2.388       .  S
Zr145       O170   2.445       .  S
Zr145       O164   2.411       .  S
Zr145       O172   2.353       .  S
Zr145       O160   2.381       .  S
Zr145       O151   2.391       .  S
Zr145       O152   2.398       .  S
Zr145       O153   2.379       .  S
Zr145       O154   2.388       .  S
Zr146       O165   2.440       .  S
Zr146       O158   2.439       .  S
Zr146       O159   2.537       .  S
Zr146       O152   2.424       .  S
Zr146       O153   2.380       .  S
Zr147       O149   2.434       .  S
Zr147       O171   2.438       .  S
Zr147       O173   2.530       .  S
Zr147       O151   2.411       .  S
Zr147       O154   2.388       .  S
Zr148       O174   2.439       .  S
Zr148       O175   2.436       .  S
Zr148       O150   2.439       .  S
Zr148       O151   2.396       .  S
Zr148       O152   2.402       .  S
O149        H186   0.990       .  S
O150        H181   0.990       .  S
O150        H195   0.990       .  S
O152        H178   0.965       .  S
O153       Zr163   2.367       .  S
O154       Zr163   2.372       .  S
O154        H179   0.963       .  S
C155        C972   1.479       .  S
C156        C985   1.506       .  S
C157        C992   1.503       .  S
O158        H194   0.990       .  S
O159        C161   1.298       .  A
O160        C161   1.263       .  A
C161       C1002   1.512       .  S
O162       Zr163   2.436       .  S
O162        H191   0.990       .  S
Zr163       O166   2.434       .  S
Zr163       O167   2.440       .  S
Zr163       O168   2.416       .  S
O164        C169   1.281       .  A
O165        H182   0.990       .  S
O165        H197   0.990       .  S
O166        H183   0.990       .  S
O167        H187   0.990       .  S
O167        H196   0.990       .  S
O168        C169   1.281       .  A
C169       C1205   1.481       .  S
O170        H189   0.991       .  S
O170        H193   0.990       .  S
O171        H185   0.990       .  S
O171        H192   0.990       .  S
O172        C176   1.271       .  A
O173        C176   1.302       .  A
O174        H184   0.990       .  S
O175        H188   0.990       .  S
C176       C1102   1.483       .  S
Zr199       O200   2.451       .  S
Zr199       O201   2.452       .  S
Zr199       O202   2.381       .  S
Zr199       O205   2.368       .  S
Zr199       O207   2.384       .  S
Zr199       O208   2.381       .  S
Zr199       O209   2.405       .  S
Zr199       O210   2.384       .  S
O200        H256   0.990       .  S
O200        H264   0.991       .  S
O201        C221   1.285       .  A
O202        C223   1.258       .  A
O203       Zr213   2.577       .  S
O203        C222   1.311       .  A
O204       Zr212   2.563       .  S
O204        C223   1.301       .  A
O205        C222   1.269       .  A
O206       Zr214   2.430       .  S
O206        C221   1.284       .  A
O207       Zr212   2.392       .  S
O207       Zr214   2.358       .  S
O208       Zr213   2.390       .  S
O208       Zr214   2.356       .  S
O208        H243   0.964       .  S
O209       Zr212   2.419       .  S
O209       Zr229   2.384       .  S
O209        H246   0.966       .  S
O210       Zr213   2.403       .  S
O210       Zr229   2.404       .  S
Zr211       O236   2.436       .  S
Zr211       O230   2.451       .  S
Zr211       O238   2.385       .  S
Zr211       O226   2.378       .  S
Zr211       O217   2.409       .  S
Zr211       O218   2.420       .  S
Zr211       O219   2.382       .  S
Zr211       O220   2.396       .  S
Zr212       O231   2.437       .  S
Zr212       O224   2.434       .  S
Zr212       O225   2.549       .  S
Zr212       O218   2.409       .  S
Zr212       O219   2.410       .  S
Zr213       O215   2.434       .  S
Zr213       O237   2.434       .  S
Zr213       O239   2.518       .  S
Zr213       O217   2.428       .  S
Zr213       O220   2.438       .  S
Zr214       O240   2.439       .  S
Zr214       O241   2.435       .  S
Zr214       O216   2.436       .  S
Zr214       O217   2.395       .  S
Zr214       O218   2.386       .  S
O215        H252   0.990       .  S
O216        H247   0.990       .  S
O216        H261   0.990       .  S
O218        H244   0.966       .  S
O219       Zr229   2.369       .  S
O220       Zr229   2.360       .  S
O220        H245   0.964       .  S
C221       C1092   1.492       .  S
C222       C1225   1.522       .  S
C223       C1065   1.517       .  S
O224        H260   0.990       .  S
O225        C227   1.303       .  A
O226        C227   1.264       .  A
C227        C942   1.512       .  S
O228       Zr229   2.437       .  S
O228        H257   0.990       .  S
Zr229       O232   2.439       .  S
Zr229       O233   2.442       .  S
Zr229       O234   2.414       .  S
O230        C235   1.285       .  A
O231        H248   0.990       .  S
O231        H263   0.990       .  S
O232        H249   0.990       .  S
O233        H253   0.990       .  S
O233        H262   0.990       .  S
O234        C235   1.279       .  A
C235        C952   1.497       .  S
O236        H255   0.989       .  S
O236        H259   0.989       .  S
O237        H251   0.990       .  S
O237        H258   0.990       .  S
O238        C242   1.266       .  A
O239        C242   1.291       .  A
O240        H250   0.990       .  S
O241        H254   0.990       .  S
C242        C962   1.510       .  S
Zr265       O266   2.440       .  S
Zr265       O267   2.398       .  S
Zr265       O268   2.372       .  S
Zr265       O271   2.389       .  S
Zr265       O273   2.376       .  S
Zr265       O274   2.391       .  S
Zr265       O275   2.399       .  S
Zr265       O276   2.390       .  S
O266        H322   0.991       .  S
O266        H330   0.990       .  S
O267        C287   1.277       .  A
O268        C289   1.272       .  A
O269       Zr279   2.555       .  S
O269        C288   1.302       .  A
O270       Zr278   2.511       .  S
O270        C289   1.300       .  A
O271        C288   1.267       .  A
O272       Zr280   2.436       .  S
O272        C287   1.285       .  A
O273       Zr278   2.399       .  S
O273       Zr280   2.370       .  S
O274       Zr279   2.402       .  S
O274       Zr280   2.356       .  S
O274        H309   0.964       .  S
O275       Zr278   2.415       .  S
O275       Zr295   2.397       .  S
O275        H312   0.967       .  S
O276       Zr279   2.412       .  S
O276       Zr295   2.399       .  S
Zr277       O302   2.442       .  S
Zr277       O296   2.419       .  S
Zr277       O304   2.359       .  S
Zr277       O292   2.380       .  S
Zr277       O283   2.401       .  S
Zr277       O284   2.396       .  S
Zr277       O285   2.378       .  S
Zr277       O286   2.383       .  S
Zr278       O297   2.434       .  S
Zr278       O290   2.434       .  S
Zr278       O291   2.533       .  S
Zr278       O284   2.411       .  S
Zr278       O285   2.380       .  S
Zr279       O281   2.434       .  S
Zr279       O303   2.436       .  S
Zr279       O305   2.542       .  S
Zr279       O283   2.423       .  S
Zr279       O286   2.401       .  S
Zr280       O306   2.436       .  S
Zr280       O307   2.437       .  S
Zr280       O282   2.436       .  S
Zr280       O283   2.412       .  S
Zr280       O284   2.384       .  S
O281        H318   0.990       .  S
O282        H313   0.990       .  S
O282        H327   0.990       .  S
O284        H310   0.965       .  S
O285       Zr295   2.360       .  S
O286       Zr295   2.371       .  S
O286        H311   0.964       .  S
C287        C915   1.478       .  S
C288        C922   1.521       .  S
C289        C932   1.484       .  S
O290        H326   0.990       .  S
O291        C293   1.300       .  A
O292        C293   1.264       .  A
C293       C1115   1.509       .  S
O294       Zr295   2.434       .  S
O294        H323   0.990       .  S
Zr295       O298   2.434       .  S
Zr295       O299   2.440       .  S
Zr295       O300   2.421       .  S
O296        C301   1.281       .  A
O297        H314   0.990       .  S
O297        H329   0.990       .  S
O298        H315   0.989       .  S
O299        H319   0.990       .  S
O299        H328   0.990       .  S
O300        C301   1.282       .  A
C301       C1245   1.483       .  S
O302        H321   0.991       .  S
O302        H325   0.990       .  S
O303        H317   0.990       .  S
O303        H324   0.990       .  S
O304        C308   1.270       .  A
O305        C308   1.306       .  A
O306        H316   0.990       .  S
O307        H320   0.990       .  S
C308       C1082   1.486       .  S
C331        N332   1.342       .  A
C331        N336   1.369       .  A
C331       C1045   1.477       .  S
N332        C333   1.339   1_554  A
C333        N334   1.382       .  A
C333        C905   1.505       .  S
N334        C335   1.388   1_556  A
C335        N336   1.376       .  A
C335        C715   1.524       .  S
Zr337       O338   2.443       .  S
Zr337       O339   2.411       .  S
Zr337       O340   2.376       .  S
Zr337       O343   2.387       .  S
Zr337       O345   2.374       .  S
Zr337       O346   2.390       .  S
Zr337       O347   2.412       .  S
Zr337       O348   2.397       .  S
O338        H394   0.989       .  S
O338        H402   0.991       .  S
O339        C359   1.280       .  A
O340        C361   1.265       .  A
O341       Zr351   2.534       .  S
O341        C360   1.297       .  A
O342       Zr350   2.532       .  S
O342        C361   1.299       .  A
O343        C360   1.267       .  A
O344       Zr352   2.390       .  S
O344        C359   1.275       .  A
O345       Zr350   2.401       .  S
O345       Zr352   2.377       .  S
O346       Zr351   2.411       .  S
O346       Zr352   2.368       .  S
O346        H381   0.965       .  S
O347       Zr350   2.414       .  S
O347       Zr367   2.385       .  S
O347        H384   0.967       .  S
O348       Zr351   2.412       .  S
O348       Zr367   2.388       .  S
Zr349       O374   2.443       .  S
Zr349       O368   2.397       .  S
Zr349       O376   2.394       .  S
Zr349       O364   2.376       .  S
Zr349       O355   2.391       .  S
Zr349       O356   2.407       .  S
Zr349       O357   2.379       .  S
Zr349       O358   2.394       .  S
Zr350       O369   2.434       .  S
Zr350       O362   2.434       .  S
Zr350       O363   2.546       .  S
Zr350       O356   2.409       .  S
Zr350       O357   2.389       .  S
Zr351       O353   2.434       .  S
Zr351       O375   2.436       .  S
Zr351       O377   2.527       .  S
Zr351       O355   2.419       .  S
Zr351       O358   2.417       .  S
Zr352       O378   2.435       .  S
Zr352       O379   2.437       .  S
Zr352       O354   2.439       .  S
Zr352       O355   2.393       .  S
Zr352       O356   2.373       .  S
O353        H390   0.990       .  S
O354        H385   0.990       .  S
O354        H399   0.990       .  S
O356        H382   0.968       .  S
O357       Zr367   2.373       .  S
O358       Zr367   2.378       .  S
O358        H383   0.966       .  S
C359       C1135   1.472       .  S
C360        C902   1.520       .  S
C361       C1175   1.492       .  S
O362        H398   0.990       .  S
O363        C365   1.301       .  A
O364        C365   1.264       .  A
C365        C872   1.514       .  S
O366       Zr367   2.438       .  S
O366        H395   0.990       .  S
Zr367       O370   2.433       .  S
Zr367       O371   2.440       .  S
Zr367       O372   2.407       .  S
O368        C373   1.277       .  A
O369        H386   0.990       .  S
O369        H401   0.990       .  S
O370        H387   0.990       .  S
O371        H391   0.989       .  S
O371        H400   0.990       .  S
O372        C373   1.279       .  A
C373        C885   1.473       .  S
O374        H393   0.988       .  S
O374        H397   0.990       .  S
O375        H389   0.990       .  S
O375        H396   0.990       .  S
O376        C380   1.268       .  A
O377        C380   1.296       .  A
O378        H388   0.990       .  S
O379        H392   0.990       .  S
C380        C892   1.499       .  S
Zr403       O404   2.439       .  S
Zr403       O405   2.407       .  S
Zr403       O406   2.393       .  S
Zr403       O409   2.405       .  S
Zr403       O411   2.381       .  S
Zr403       O412   2.385       .  S
Zr403       O413   2.411       .  S
Zr403       O414   2.390       .  S
O404        H460   0.990       .  S
O404        H468   0.990       .  S
O405        C425   1.279       .  A
O406        C427   1.269       .  A
O407       Zr417   2.499       .  S
O407        C426   1.292       .  A
O408       Zr416   2.515       .  S
O408        C427   1.297       .  A
O409        C426   1.274       .  A
O410       Zr418   2.422       .  S
O410        C425   1.281       .  A
O411       Zr416   2.398       .  S
O411       Zr418   2.370       .  S
O412       Zr417   2.407       .  S
O412       Zr418   2.374       .  S
O412        H447   0.965       .  S
O413       Zr416   2.405       .  S
O413       Zr433   2.387       .  S
O413        H450   0.966       .  S
O414       Zr417   2.404       .  S
O414       Zr433   2.391       .  S
Zr415       O440   2.444       .  S
Zr415       O434   2.413       .  S
Zr415       O442   2.406       .  S
Zr415       O430   2.389       .  S
Zr415       O421   2.395       .  S
Zr415       O422   2.412       .  S
Zr415       O423   2.381       .  S
Zr415       O424   2.386       .  S
Zr416       O435   2.436       .  S
Zr416       O428   2.436       .  S
Zr416       O429   2.502       .  S
Zr416       O422   2.420       .  S
Zr416       O423   2.401       .  S
Zr417       O419   2.433       .  S
Zr417       O441   2.434       .  S
Zr417       O443   2.496       .  S
Zr417       O421   2.410       .  S
Zr417       O424   2.413       .  S
Zr418       O444   2.436       .  S
Zr418       O445   2.437       .  S
Zr418       O420   2.437       .  S
Zr418       O421   2.398       .  S
Zr418       O422   2.395       .  S
O419        H456   0.990       .  S
O420        H451   0.990       .  S
O420        H465   0.990       .  S
O422        H448   0.967       .  S
O423       Zr433   2.375       .  S
O424       Zr433   2.369       .  S
O424        H449   0.966       .  S
C425       C1122   1.480       .  S
C426       C1155   1.488       .  S
C427       C1215   1.505       .  S
O428        H464   0.990       .  S
O429        C431   1.293       .  A
O430        C431   1.270       .  A
C431        C855   1.482       .  S
O432       Zr433   2.437       .  S
O432        H461   0.990       .  S
Zr433       O436   2.434       .  S
Zr433       O437   2.437       .  S
Zr433       O438   2.425       .  S
O434        C439   1.280       .  A
O435        H452   0.990       .  S
O435        H467   0.990       .  S
O436        H453   0.990       .  S
O437        H457   0.990       .  S
O437        H466   0.990       .  S
O438        C439   1.282       .  A
C439        C862   1.478       .  S
O440        H459   0.990       .  S
O440        H463   0.991       .  S
O441        H455   0.990       .  S
O441        H462   0.990       .  S
O442        C446   1.273       .  A
O443        C446   1.294       .  A
O444        H454   0.990       .  S
O445        H458   0.990       .  S
C446        C845   1.503       .  S
Zr469       O470   2.444       .  S
Zr469       O471   2.425       .  S
Zr469       O472   2.387       .  S
Zr469       O475   2.391       .  S
Zr469       O477   2.379       .  S
Zr469       O478   2.392       .  S
Zr469       O479   2.414       .  S
Zr469       O480   2.404       .  S
O470        H526   0.990       .  S
O470        H534   0.990       .  S
O471        C491   1.281       .  A
O472        C493   1.270       .  A
O473       Zr483   2.511       .  S
O473        C492   1.294       .  A
O474       Zr482   2.525       .  S
O474        C493   1.299       .  A
O475        C492   1.267       .  A
O476       Zr484   2.427       .  S
O476        C491   1.282       .  A
O477       Zr482   2.408       .  S
O477       Zr484   2.378       .  S
O478       Zr483   2.420       .  S
O478       Zr484   2.364       .  S
O478        H513   0.965       .  S
O479       Zr482   2.408       .  S
O479       Zr499   2.388       .  S
O479        H516   0.966       .  S
O480       Zr483   2.416       .  S
O480       Zr499   2.389       .  S
Zr481       O506   2.444       .  S
Zr481       O500   2.423       .  S
Zr481       O508   2.400       .  S
Zr481       O496   2.378       .  S
Zr481       O487   2.396       .  S
Zr481       O488   2.416       .  S
Zr481       O489   2.385       .  S
Zr481       O490   2.391       .  S
Zr482       O501   2.437       .  S
Zr482       O494   2.435       .  S
Zr482       O495   2.531       .  S
Zr482       O488   2.413       .  S
Zr482       O489   2.394       .  S
Zr483       O485   2.433       .  S
Zr483       O507   2.436       .  S
Zr483       O509   2.518       .  S
Zr483       O487   2.411       .  S
Zr483       O490   2.412       .  S
Zr484       O510   2.438       .  S
Zr484       O511   2.436       .  S
Zr484       O486   2.440       .  S
Zr484       O487   2.402       .  S
Zr484       O488   2.388       .  S
O485        H522   0.990       .  S
O486        H517   0.990       .  S
O486        H531   0.990       .  S
O488        H514   0.965       .  S
O489       Zr499   2.373       .  S
O490       Zr499   2.374       .  S
O490        H515   0.965       .  S
C491       C1195   1.491       .  S
C492       C1165   1.507       .  S
C493       C1232   1.491       .  S
O494        H530   0.990       .  S
O495        C497   1.300       .  A
O496        C497   1.263       .  A
C497        C822   1.502       .  S
O498       Zr499   2.436       .  S
O498        H527   0.990       .  S
Zr499       O502   2.434       .  S
Zr499       O503   2.437       .  S
Zr499       O504   2.413       .  S
O500        C505   1.282       .  A
O501        H518   0.990       .  S
O501        H533   0.990       .  S
O502        H519   0.990       .  S
O503        H523   0.990       .  S
O503        H532   0.990       .  S
O504        C505   1.280       .  A
C505        C835   1.485       .  S
O506        H525   0.990       .  S
O506        H529   0.990       .  S
O507        H521   0.990       .  S
O507        H528   0.991       .  S
O508        C512   1.270       .  A
O509        C512   1.294       .  A
O510        H520   0.990       .  S
O511        H524   0.990       .  S
C512        C812   1.500       .  S
Zr535       O536   2.439       .  S
Zr535       O537   2.420       .  S
Zr535       O538   2.374       .  S
Zr535       O541   2.394       .  S
Zr535       O543   2.389       .  S
Zr535       O544   2.390       .  S
Zr535       O545   2.432       .  S
Zr535       O546   2.392       .  S
O536        H592   0.988       .  S
O536        H600   0.990       .  S
O537        C557   1.281       .  A
O538        C559   1.260       .  A
O539       Zr549   2.514       .  S
O539        C558   1.293       .  A
O540       Zr548   2.510       .  S
O540        C559   1.292       .  A
O541        C558   1.271       .  A
O542       Zr550   2.430       .  S
O542        C557   1.283       .  A
O543       Zr548   2.404       .  S
O543       Zr550   2.361       .  S
O544       Zr549   2.401       .  S
O544       Zr550   2.367       .  S
O544        H579   0.965       .  S
O545       Zr548   2.426       .  S
O545       Zr565   2.374       .  S
O545        H582   0.966       .  S
O546       Zr549   2.411       .  S
O546       Zr565   2.386       .  S
Zr547       O572   2.439       .  S
Zr547       O566   2.438       .  S
Zr547       O574   2.396       .  S
Zr547       O562   2.386       .  S
Zr547       O553   2.408       .  S
Zr547       O554   2.408       .  S
Zr547       O556   2.388       .  S
Zr547       O555   2.269       .  S
Zr548       O567   2.437       .  S
Zr548       O560   2.436       .  S
Zr548       O561   2.532       .  S
Zr548       O554   2.399       .  S
Zr548       O555   2.298       .  S
Zr549       O551   2.434       .  S
Zr549       O573   2.437       .  S
Zr549       O575   2.484       .  S
Zr549       O553   2.423       .  S
Zr549       O556   2.433       .  S
Zr550       O576   2.435       .  S
Zr550       O577   2.435       .  S
Zr550       O552   2.438       .  S
Zr550       O553   2.406       .  S
Zr550       O554   2.407       .  S
O551        H588   0.990       .  S
O552        H583   0.990       .  S
O552        H597   0.990       .  S
O554        H580   0.966       .  S
O555       Zr565   2.291       .  S
O556       Zr565   2.362       .  S
O556        H581   0.965       .  S
C557       C1145   1.487       .  S
C558       C1182   1.497       .  S
C559       C1255   1.490       .  S
O560        H596   0.990       .  S
O561        C563   1.301       .  A
O562        C563   1.271       .  A
C563        C795   1.497       .  S
O564       Zr565   2.435       .  S
O564        H593   0.990       .  S
Zr565       O568   2.437       .  S
Zr565       O569   2.440       .  S
Zr565       O570   2.399       .  S
O566        C571   1.284       .  A
O567        H584   0.990       .  S
O567        H599   0.990       .  S
O568        H585   0.990       .  S
O569        H589   0.990       .  S
O569        H598   0.990       .  S
O570        C571   1.277       .  A
C571        C802   1.486       .  S
O572        H591   0.989       .  S
O572        H595   0.989       .  S
O573        H587   0.990       .  S
O573        H594   0.990       .  S
O574        C578   1.267       .  A
O575        C578   1.287       .  A
O576        H586   0.989       .  S
O577        H590   0.990       .  S
C578        C785   1.496       .  S
C601        N602   1.349       .  A
C601        N606   1.354       .  A
C601        C805   1.484       .  S
N602        C603   1.355       .  A
C603        N604   1.373       .  A
C603        C852   1.503       .  S
N604        C605   1.376       .  A
C605        N606   1.359       .  A
C605        C738   1.482       .  S
C607        N608   1.356       .  A
C607        N612   1.353       .  A
C607        C882   1.477       .  S
N608        C609   1.357       .  A
C609        N610   1.358       .  A
C609        C865   1.480       .  S
N610        C611   1.353       .  A
C611        N612   1.348       .  A
C611        C740   1.444       .  S
C613        N614   1.345       .  A
C613        N618   1.378       .  A
C613        C825   1.501       .  S
N614        C615   1.345       .  A
C615        N616   1.378       .  A
C615        C895   1.521       .  S
N616        C617   1.388       .  A
C617        N618   1.383       .  A
C617        C739   1.535       .  S
C619        N620   1.355       .  A
C619        N624   1.355       .  A
C619        C832   1.491       .  S
N620        C621   1.356       .  A
C621        N622   1.376       .  A
C621        C741   1.487       .  S
N622        C623   1.376       .  A
C623        N624   1.358       .  A
C623        C792   1.509       .  S
C625        N626   1.346       .  A
C625        N630   1.378       .  A
C625        C965   1.499       .  S
N626        C627   1.345       .  A
C627        N628   1.371       .  A
C627       C1022   1.487       .  S
N628        C629   1.378       .  A
C629        N630   1.384       .  A
C629        C769   1.522       .  S
C631        N632   1.359       .  A
C631        N636   1.357       .  A
C631        C955   1.499       .  S
N632        C633   1.360       .  A
C633        N634   1.374       .  A
C633        C935   1.515       .  S
N634        C635   1.372       .  A
C635        N636   1.358       .  A
C635        C776   1.484       .  S
C637        N638   1.382       .  A
C637        N642   1.353       .  A
C637        C925   1.509       .  S
N638        C639   1.383       .  A
C639        N640   1.374       .  A
C639        C770   1.524       .  S
N640        C641   1.369       .  A
C641        N642   1.352       .  A
C641        C995   1.510       .  S
C643        N644   1.352       .  A
C643        N648   1.347       .  A
C643       C1035   1.473       .  S
N644        C645   1.357       .  A
C645        N646   1.383       .  A
C645        C982   1.509       .  S
N646        C647   1.381       .  A
C647        N648   1.350       .  A
C647        C775   1.488       .  S
C649        N650   1.353       .  A
C649        N654   1.350       .  A
C649        C912   1.476       .  S
N650        C651   1.358       .  A
C651        N652   1.374       .  A
C651        C773   1.483       .  S
N652        C653   1.376       .  A
C653        N654   1.351       .  A
C653        C782   1.485       .  S
C655        N656   1.344       .  A
C655        N660   1.375       .  A
C655        C945   1.499       .  S
N656        C657   1.349       .  A
C657        N658   1.381       .  A
C657        C815   1.520       .  S
N658        C659   1.387       .  A
C659        N660   1.382       .  A
C659        C772   1.533       .  S
C661        N662   1.350       .  A
C661        N666   1.353       .  A
C661        C975   1.473       .  S
N662        C663   1.352       .  A
C663        N664   1.377       .  A
C663        C774   1.484       .  S
N664        C665   1.377       .  A
C665        N666   1.356       .  A
C665        C842   1.501       .  S
C667        N668   1.342       .  A
C667        N672   1.377       .  A
C667       C1015   1.486       .  S
N668        C669   1.340       .  A
C669        N670   1.382       .  A
C669        C875   1.500       .  S
N670        C671   1.387       .  A
C671        N672   1.382       .  A
C671        C771   1.540       .  S
O673       Zr709   2.480   1_565  S
O673        C684   1.298       .  A
O674       Zr708   2.468   1_565  S
O674        C685   1.298       .  A
O675       Zr681   2.450       .  S
O675        C686   1.294       .  A
O676       Zr681   2.461   1_554  S
O676        C687   1.295       .  A
O677       Zr711   2.536   1_565  S
O677        C687   1.310       .  A
O678       Zr710   2.441   1_565  S
O678        C686   1.290       .  A
O679       Zr681   2.453   1_455  S
O679        C685   1.292   1_556  A
O680       Zr681   2.432       .  S
O680        C684   1.290       .  A
Zr681       O682   2.346   1_556  S
Zr681       O683   2.343       .  S
Zr681       O691   2.358   1_556  S
Zr681       O689   2.332       .  S
O682       Zr708   2.344   1_665  S
O682       Zr711   2.342   1_565  S
O683       Zr709   2.344   1_565  S
O683       Zr710   2.343   1_565  S
H688        O689   0.964       .  S
O689       Zr708   2.342   1_666  S
O689       Zr710   2.337   1_565  S
H690        O691   0.965       .  S
O691       Zr709   2.368   1_564  S
O691       Zr711   2.351   1_565  S
O692       Zr708   2.488       .  S
O692        C715   1.301       .  A
O693       Zr709   2.493       .  S
O693        C716   1.302       .  A
O694       Zr710   2.456   1_455  S
O694        C717   1.293       .  A
O695       Zr711   2.483   1_565  S
O695        C718   1.298   1_665  A
O696       Zr711   2.472       .  S
O696        C719   1.299       .  A
O697       Zr710   2.446       .  S
O697        C720   1.292       .  A
O698       Zr712   2.554   1_556  S
O698        C721   1.314       .  A
O699       Zr712   2.538       .  S
O699        C722   1.312       .  A
O700       Zr710   2.449       .  S
O700        C721   1.293       .  A
O701       Zr711   2.478       .  S
O701        C722   1.300       .  A
O702       Zr708   2.402   1_556  S
O702        C717   1.284       .  A
O703       Zr709   2.474       .  S
O703        C720   1.297       .  A
O704       Zr709   2.459   1_554  S
O704        C719   1.295       .  A
O705       Zr708   2.446       .  S
O705        C718   1.294       .  A
O706       Zr712   2.524       .  S
O706        C715   1.308   1_655  A
O707       Zr712   2.526       .  S
O707        C716   1.309   1_554  A
Zr708       O714   2.352   1_454  S
Zr708       O726   2.342   1_455  S
Zr709       O713   2.367   1_556  S
Zr709       O724   2.370       .  S
Zr710       O714   2.348       .  S
Zr710       O724   2.363       .  S
Zr711       O713   2.383       .  S
Zr711       O726   2.387       .  S
Zr712       O713   2.386       .  S
Zr712       O714   2.359   1_554  S
Zr712       O726   2.396       .  S
Zr712       O724   2.381   1_554  S
H723        O724   0.966       .  S
H725        O726   0.965       .  S
O727       Zr763   2.468       .  S
O727        C738   1.298       .  A
O728       Zr762   2.571       .  S
O728        C739   1.318       .  A
O729       Zr735   2.452       .  S
O729        C740   1.293       .  A
O730       Zr735   2.446       .  S
O730        C741   1.292       .  A
O731       Zr765   2.494       .  S
O731        C741   1.301       .  A
O732       Zr764   2.391       .  S
O732        C740   1.282       .  A
O733       Zr735   2.453       .  S
O733        C739   1.294       .  A
O734       Zr735   2.450       .  S
O734        C738   1.291       .  A
Zr735       O736   2.362       .  S
Zr735       O737   2.335       .  S
Zr735       O745   2.353       .  S
Zr735       O743   2.352       .  S
O736       Zr762   2.374       .  S
O736       Zr765   2.369       .  S
O737       Zr763   2.334       .  S
O737       Zr764   2.345       .  S
H742        O743   0.965       .  S
O743       Zr762   2.358       .  S
O743       Zr764   2.362       .  S
H744        O745   0.965       .  S
O745       Zr763   2.346       .  S
O745       Zr765   2.356       .  S
O746       Zr762   2.530       .  S
O746        C769   1.311       .  A
O747       Zr763   2.468       .  S
O747        C770   1.297       .  A
O748       Zr764   2.501       .  S
O748        C771   1.303       .  A
O749       Zr765   2.506       .  S
O749        C772   1.305       .  A
O750       Zr765   2.497       .  S
O750        C773   1.301       .  A
O751       Zr764   2.479       .  S
O751        C774   1.301       .  A
O752       Zr766   2.487       .  S
O752        C775   1.298       .  A
O753       Zr766   2.467       .  S
O753        C776   1.297       .  A
O754       Zr764   2.455       .  S
O754        C775   1.295       .  A
O755       Zr765   2.468       .  S
O755        C776   1.296       .  A
O756       Zr762   2.550       .  S
O756        C771   1.313       .  A
O757       Zr763   2.444       .  S
O757        C774   1.290       .  A
O758       Zr763   2.428       .  S
O758        C773   1.290       .  A
O759       Zr762   2.527       .  S
O759        C772   1.310       .  A
O760       Zr766   2.491       .  S
O760        C769   1.303       .  A
O761       Zr766   2.538       .  S
O761        C770   1.310       .  A
Zr762       O768   2.392       .  S
Zr762       O780   2.396       .  S
Zr763       O767   2.356       .  S
Zr763       O778   2.353       .  S
Zr764       O768   2.345       .  S
Zr764       O778   2.347       .  S
Zr765       O767   2.369       .  S
Zr765       O780   2.377       .  S
Zr766       O767   2.358       .  S
Zr766       O768   2.384       .  S
Zr766       O780   2.393       .  S
Zr766       O778   2.350       .  S
H777        O778   0.965       .  S
H779        O780   0.967       .  S
C781        C782   1.402       .  A
C781        C786   1.406       .  A
C781        F788   1.357       .  S
C782        C783   1.411       .  A
C783        C784   1.406       .  A
C783        F790   1.358       .  S
C784        C785   1.408       .  A
C784        F789   1.357       .  S
C785        C786   1.414       .  A
C786        F787   1.357       .  S
C791        C792   1.417       .  A
C791        C796   1.406       .  A
C791        F798   1.358       .  S
C792        C793   1.410       .  A
C793        C794   1.416       .  A
C793        F800   1.357       .  S
C794        C795   1.414       .  A
C794        F799   1.356       .  S
C795        C796   1.404       .  A
C796        F797   1.358       .  S
C801        C802   1.411       .  A
C801        C806   1.398       .  A
C801        F808   1.359       .  S
C802        C803   1.408       .  A
C803        C804   1.394       .  A
C803        F810   1.355       .  S
C804        C805   1.406       .  A
C804        F809   1.357       .  S
C805        C806   1.411       .  A
C806        F807   1.359       .  S
C811        C812   1.414       .  A
C811        C816   1.419       .  A
C811        F818   1.352       .  S
C812        C813   1.399       .  A
C813        C814   1.406       .  A
C813        F820   1.358       .  S
C814        C815   1.425       .  A
C814        F819   1.358       .  S
C815        C816   1.409       .  A
C816        F817   1.356       .  S
C821        C822   1.403       .  A
C821        C826   1.405       .  A
C821        F828   1.358       .  S
C822        C823   1.421       .  A
C823        C824   1.415       .  A
C823        F830   1.358       .  S
C824        C825   1.404       .  A
C824        F829   1.357       .  S
C825        C826   1.417       .  A
C826        F827   1.358       .  S
C831        C832   1.413       .  A
C831        C836   1.397       .  A
C831        F838   1.358       .  S
C832        C833   1.411       .  A
C833        C834   1.396       .  A
C833        F840   1.358       .  S
C834        C835   1.409       .  A
C834        F839   1.357       .  S
C835        C836   1.408       .  A
C836        F837   1.358       .  S
C841        C842   1.407       .  A
C841        C846   1.413       .  A
C841        F848   1.357       .  S
C842        C843   1.414       .  A
C843        C844   1.404       .  A
C843        F850   1.358       .  S
C844        C845   1.406       .  A
C844        F849   1.358       .  S
C845        C846   1.418       .  A
C846        F847   1.358       .  S
C851        C852   1.417       .  A
C851        C856   1.399       .  A
C851        F858   1.358       .  S
C852        C853   1.408       .  A
C853        C854   1.413       .  A
C853        F860   1.357       .  S
C854        C855   1.413       .  A
C854        F859   1.354       .  S
C855        C856   1.399       .  A
C856        F857   1.358       .  S
C861        C862   1.407       .  A
C861        C866   1.392       .  A
C861        F868   1.356       .  S
C862        C863   1.406       .  A
C863        C864   1.398       .  A
C863        F870   1.358       .  S
C864        C865   1.411       .  A
C864        F869   1.358       .  S
C865        C866   1.407       .  A
C866        F867   1.358       .  S
C871        C872   1.409       .  A
C871        C876   1.418       .  A
C871        F878   1.357       .  S
C872        C873   1.421       .  A
C873        C874   1.409       .  A
C873        F880   1.358       .  S
C874        C875   1.403       .  A
C874        F879   1.357       .  S
C875        C876   1.419       .  A
C876        F877   1.357       .  S
C881        C882   1.410       .  A
C881        C886   1.394       .  A
C881        F888   1.357       .  S
C882        C883   1.408       .  A
C883        C884   1.385       .  A
C883        F890   1.358       .  S
C884        C885   1.408       .  A
C884        F889   1.356       .  S
C885        C886   1.406       .  A
C886        F887   1.358       .  S
C891        C892   1.400       .  A
C891        C896   1.407       .  A
C891        F898   1.358       .  S
C892        C893   1.416       .  A
C893        C894   1.419       .  A
C893        F900   1.355       .  S
C894        C895   1.408       .  A
C894        F899   1.357       .  S
C895        C896   1.426       .  A
C896        F897   1.358       .  S
C901        C902   1.408       .  A
C901        C906   1.413       .  A
C901        F908   1.357       .  S
C902        C903   1.423       .  A
C903        C904   1.416       .  A
C903        F910   1.358       .  S
C904        C905   1.404       .  A
C904        F909   1.357       .  S
C905        C906   1.420       .  A
C906        F907   1.358       .  S
C911        C912   1.405       .  A
C911        C916   1.393       .  A
C911        F918   1.358       .  S
C912        C913   1.408       .  A
C913        C914   1.394       .  A
C913        F920   1.358       .  S
C914        C915   1.406       .  A
C914        F919   1.358       .  S
C915        C916   1.412       .  A
C916        F917   1.358       .  S
C921        C922   1.410       .  A
C921        C926   1.415       .  A
C921        F928   1.357       .  S
C922        C923   1.422       .  A
C923        C924   1.417       .  A
C923        F930   1.357       .  S
C924        C925   1.405       .  A
C924        F929   1.358       .  S
C925        C926   1.416       .  A
C926        F927   1.358       .  S
C931        C932   1.412       .  A
C931        C936   1.408       .  A
C931        F938   1.358       .  S
C932        C933   1.399       .  A
C933        C934   1.406       .  A
C933        F940   1.358       .  S
C934        C935   1.423       .  A
C934        F939   1.354       .  S
C935        C936   1.411       .  A
C936        F937   1.357       .  S
C941        C942   1.421       .  A
C941        C946   1.412       .  A
C941        F948   1.359       .  S
C942        C943   1.408       .  A
C943        C944   1.414       .  A
C943        F950   1.357       .  S
C944        C945   1.414       .  A
C944        F949   1.357       .  S
C945        C946   1.406       .  A
C946        F947   1.358       .  S
C951        C952   1.413       .  A
C951        C956   1.393       .  A
C951        F958   1.359       .  S
C952        C953   1.411       .  A
C953        C954   1.406       .  A
C953        F960   1.357       .  S
C954        C955   1.415       .  A
C954        F959   1.357       .  S
C955        C956   1.409       .  A
C956        F957   1.355       .  S
C961        C962   1.411       .  A
C961        C966   1.401       .  A
C961        F968   1.358       .  S
C962        C963   1.415       .  A
C963        C964   1.422       .  A
C963        F970   1.357       .  S
C964        C965   1.412       .  A
C964        F969   1.357       .  S
C965        C966   1.408       .  A
C966        F967   1.359       .  S
C971        C972   1.409       .  A
C971        C976   1.396       .  A
C971        F978   1.358       .  S
C972        C973   1.409       .  A
C973        C974   1.389       .  A
C973        F980   1.356       .  S
C974        C975   1.406       .  A
C974        F979   1.358       .  S
C975        C976   1.406       .  A
C976        F977   1.358       .  S
C981        C982   1.405       .  A
C981        C986   1.411       .  A
C981        F988   1.357       .  S
C982        C983   1.420       .  A
C983        C984   1.409       .  A
C983        F990   1.357       .  S
C984        C985   1.404       .  A
C984        F989   1.358       .  S
C985        C986   1.420       .  A
C986        F987   1.358       .  S
C991        C992   1.418       .  A
C991        C996   1.406       .  A
C991        F998   1.358       .  S
C992        C993   1.404       .  A
C993        C994   1.409       .  A
C993       F1000   1.357       .  S
C994        C995   1.422       .  A
C994        F999   1.358       .  S
C995        C996   1.408       .  A
C996        F997   1.358       .  S
C1001      C1002   1.421       .  A
C1001      C1006   1.406       .  A
C1001      F1008   1.358       .  S
C1002      C1003   1.410       .  A
C1003      C1004   1.417       .  A
C1003      F1010   1.358       .  S
C1004      C1005   1.419       .  A
C1004      F1009   1.358       .  S
C1005      C1006   1.400       .  A
C1006      F1007   1.357       .  S
C1011      C1012   1.409       .  A
C1011      C1016   1.402       .  A
C1011      F1018   1.359       .  S
C1012      C1013   1.411       .  A
C1013      C1014   1.414       .  A
C1013      F1020   1.357       .  S
C1014      C1015   1.411       .  A
C1014      F1019   1.357       .  S
C1015      C1016   1.408       .  A
C1016      F1017   1.358       .  S
C1021      C1022   1.411       .  A
C1021      C1026   1.419       .  A
C1021      F1028   1.357       .  S
C1022      C1023   1.403       .  A
C1023      C1024   1.396       .  A
C1023      F1030   1.359       .  S
C1024      C1025   1.414       .  A
C1024      F1029   1.359       .  S
C1025      C1026   1.413       .  A
C1026      F1027   1.357       .  S
C1031      C1032   1.406       .  A
C1031      C1036   1.392       .  A
C1031      F1038   1.358       .  S
C1032      C1033   1.408       .  A
C1033      C1034   1.395       .  A
C1033      F1040   1.358       .  S
C1034      C1035   1.409       .  A
C1034      F1039   1.358       .  S
C1035      C1036   1.405       .  A
C1036      F1037   1.357       .  S
C1041      C1042   1.408       .  A
C1041      C1046   1.390       .  A
C1041      F1048   1.359       .  S
C1042      C1043   1.411       .  A
C1043      C1044   1.416       .  A
C1043      F1050   1.357       .  S
C1044      C1045   1.410       .  A
C1044      F1049   1.357       .  S
C1045      C1046   1.405       .  A
C1046      F1047   1.360       .  S
C1051      C1052   1.411       .  A
C1051      C1056   1.395       .  A
C1051      F1058   1.358       .  S
C1052      C1053   1.405       .  A
C1053      C1054   1.390       .  A
C1053      F1060   1.358       .  S
C1054      C1055   1.412       .  A
C1054      F1059   1.358       .  S
C1055      C1056   1.409       .  A
C1056      F1057   1.358       .  S
C1061      C1062   1.392       .  A
C1061      C1066   1.394       .  A
C1061      F1068   1.360       .  S
C1062      C1063   1.417       .  A
C1063      C1064   1.420       .  A
C1063      F1070   1.357       .  S
C1064      C1065   1.408       .  A
C1064      F1069   1.356       .  S
C1065      C1066   1.425       .  A
C1066      F1067   1.352       .  S
C1071      C1072   1.413       .  A
C1071      C1076   1.415       .  A
C1071      F1078   1.357       .  S
C1072      C1073   1.413       .  A
C1073      C1074   1.405   1_455  A
C1073      F1080   1.358       .  S
C1074      C1075   1.405       .  A
C1074      F1079   1.358       .  S
C1075      C1076   1.410   1_655  A
C1076      F1077   1.357       .  S
C1081      C1082   1.399       .  A
C1081      C1086   1.403       .  A
C1081      F1088   1.358       .  S
C1082      C1083   1.416       .  A
C1083      C1084   1.416       .  A
C1083      F1090   1.358       .  S
C1084      C1085   1.413       .  A
C1084      F1089   1.357       .  S
C1085      C1086   1.422       .  A
C1086      F1087   1.356       .  S
C1091      C1092   1.411       .  A
C1091      C1096   1.405       .  A
C1091      F1098   1.356       .  S
C1092      C1093   1.409       .  A
C1093      C1094   1.398       .  A
C1093      F1100   1.358       .  S
C1094      C1095   1.407       .  A
C1094      F1099   1.357       .  S
C1095      C1096   1.409       .  A
C1096      F1097   1.358       .  S
C1101      C1102   1.399       .  A
C1101      C1106   1.407   1_455  A
C1101      F1108   1.358       .  S
C1102      C1103   1.415       .  A
C1103      C1104   1.408       .  A
C1103      F1110   1.358       .  S
C1104      C1105   1.407   1_455  A
C1104      F1109   1.357       .  S
C1105      C1106   1.421       .  A
C1106      F1107   1.357       .  S
C1111      C1112   1.415       .  A
C1111      C1116   1.408       .  A
C1111      F1118   1.357       .  S
C1112      C1113   1.404       .  A
C1113      C1114   1.412       .  A
C1113      F1120   1.357       .  S
C1114      C1115   1.422       .  A
C1114      F1119   1.358       .  S
C1115      C1116   1.406       .  A
C1116      F1117   1.357       .  S
C1121      C1122   1.409       .  A
C1121      C1126   1.389       .  A
C1121      F1128   1.358       .  S
C1122      C1123   1.407       .  A
C1123      C1124   1.398       .  A
C1123      F1130   1.358       .  S
C1124      C1125   1.413       .  A
C1124      F1129   1.357       .  S
C1125      C1126   1.408       .  A
C1126      F1127   1.358       .  S
C1131      C1132   1.408       .  A
C1131      C1136   1.380       .  A
C1131      F1138   1.358       .  S
C1132      C1133   1.408       .  A
C1133      C1134   1.396       .  A
C1133      F1140   1.357       .  S
C1134      C1135   1.410       .  A
C1134      F1139   1.358       .  S
C1135      C1136   1.406       .  A
C1136      F1137   1.356       .  S
C1141      C1142   1.406       .  A
C1141      C1146   1.396       .  A
C1141      F1148   1.359       .  S
C1142      C1143   1.405       .  A
C1143      C1144   1.395       .  A
C1143      F1150   1.358       .  S
C1144      C1145   1.411       .  A
C1144      F1149   1.358       .  S
C1145      C1146   1.413       .  A
C1146      F1147   1.357       .  S
C1151      C1152   1.415   1_655  A
C1151      C1156   1.407   1_655  A
C1151      F1158   1.359       .  S
C1152      C1153   1.406       .  A
C1153      C1154   1.406       .  A
C1153      F1160   1.357       .  S
C1154      C1155   1.409       .  A
C1154      F1159   1.354       .  S
C1155      C1156   1.405       .  A
C1156      F1157   1.357       .  S
C1161      C1162   1.416       .  A
C1161      C1166   1.404       .  A
C1161      F1168   1.358       .  S
C1162      C1163   1.408       .  A
C1163      C1164   1.419       .  A
C1163      F1170   1.357       .  S
C1164      C1165   1.420       .  A
C1164      F1169   1.358       .  S
C1165      C1166   1.404       .  A
C1166      F1167   1.357       .  S
C1171      C1172   1.407       .  A
C1171      C1176   1.416       .  A
C1171      F1178   1.358       .  S
C1172      C1173   1.422   1_455  A
C1173      C1174   1.404   1_655  A
C1173      F1180   1.357       .  S
C1174      C1175   1.398       .  A
C1174      F1179   1.357       .  S
C1175      C1176   1.416       .  A
C1176      F1177   1.353       .  S
C1181      C1182   1.414       .  A
C1181      C1186   1.416       .  A
C1181      F1188   1.356       .  S
C1182      C1183   1.405       .  A
C1183      C1184   1.403       .  A
C1183      F1190   1.358       .  S
C1184      C1185   1.411       .  A
C1184      F1189   1.359       .  S
C1185      C1186   1.408       .  A
C1186      F1187   1.357       .  S
C1191      C1192   1.410       .  A
C1191      C1196   1.399       .  A
C1191      F1198   1.358       .  S
C1192      C1193   1.409       .  A
C1193      C1194   1.393       .  A
C1193      F1200   1.358       .  S
C1194      C1195   1.412       .  A
C1194      F1199   1.357       .  S
C1195      C1196   1.411       .  A
C1196      F1197   1.358       .  S
C1201      C1202   1.406       .  A
C1201      C1206   1.390       .  A
C1201      F1208   1.358       .  S
C1202      C1203   1.403       .  A
C1203      C1204   1.395       .  A
C1203      F1210   1.358       .  S
C1204      C1205   1.412       .  A
C1204      F1209   1.358       .  S
C1205      C1206   1.410       .  A
C1206      F1207   1.356       .  S
C1211      C1212   1.404       .  A
C1211      C1216   1.408       .  A
C1211      F1218   1.358       .  S
C1212      C1213   1.414       .  A
C1213      C1214   1.407       .  A
C1213      F1220   1.357       .  S
C1214      C1215   1.407       .  A
C1214      F1219   1.357       .  S
C1215      C1216   1.421       .  A
C1216      F1217   1.358       .  S
C1221      C1222   1.418       .  A
C1221      C1226   1.417       .  A
C1221      F1228   1.358       .  S
C1222      C1223   1.399       .  A
C1223      C1224   1.410       .  A
C1223      F1230   1.358       .  S
C1224      C1225   1.428       .  A
C1224      F1229   1.358       .  S
C1225      C1226   1.410       .  A
C1226      F1227   1.357       .  S
C1231      C1232   1.400       .  A
C1231      C1236   1.406       .  A
C1231      F1238   1.358       .  S
C1232      C1233   1.413       .  A
C1233      C1234   1.415       .  A
C1233      F1240   1.355       .  S
C1234      C1235   1.410       .  A
C1234      F1239   1.357       .  S
C1235      C1236   1.425       .  A
C1236      F1237   1.358       .  S
C1241      C1242   1.404       .  A
C1241      C1246   1.396       .  A
C1241      F1248   1.358       .  S
C1242      C1243   1.406       .  A
C1243      C1244   1.394       .  A
C1243      F1250   1.359       .  S
C1244      C1245   1.409       .  A
C1244      F1249   1.358       .  S
C1245      C1246   1.412       .  A
C1246      F1247   1.357       .  S
C1251      C1252   1.410       .  A
C1251      C1256   1.408       .  A
C1251      F1258   1.358       .  S
C1252      C1253   1.399       .  A
C1253      C1254   1.398       .  A
C1253      F1260   1.358       .  S
C1254      C1255   1.415       .  A
C1254      F1259   1.359       .  S
C1255      C1256   1.408       .  A
C1256      F1257   1.357       .  S
