geometry optimzed in LAMMPS
_audit_creation_date              2020-12-01 
_audit_creation_method            'lammps2cif' 
_symmetry_space_group_name_H-M    'P1' 
_symmetry_Int_Tables_number       1 
_symmetry_cell_setting            triclinic 
loop_ 
_symmetry_equiv_pos_as_xyz 
  x,y,z 
_cell_length_a                    68.7759202 
_cell_length_b                    68.9202804334454 
_cell_length_c                    43.066129772711406 
_cell_angle_alpha                 90.37628633068134 
_cell_angle_beta                  89.11559804872229 
_cell_angle_gamma                 121.76652054731808 
loop_ 
_atom_site_label 
_atom_site_type_symbol 
_atom_site_fract_x 
_atom_site_fract_y 
_atom_site_fract_z 
_atom_site_charge 
O1          O  0.47020284  0.90599469  0.02263983    -0.57000
C2          C  0.48404869  0.91391607  0.42265893     0.75600
O3          O  0.53067316  0.96892274  0.49124418    -0.58100
C4          C  0.48363238  0.91024886  0.04511491     0.75600
C5          C  0.53116602  0.90751728  0.47011949     0.78000
Cd6        Cd  0.50414057  0.92703130  0.48309558     1.37500
O7          O  0.47155418  0.90519871  0.44680548    -0.57000
O8          O  0.50973837  0.89564904  0.47465431    -0.55800
C9          C  0.51511912  0.97354073  0.48919062     0.78000
O10         O  0.54085960  0.92894915  0.47399416    -0.58200
O11         O  0.50486110  0.92886923  0.42707603    -0.56600
O12         O  0.50461749  0.91951344  0.03816707    -0.56600
O13         O  0.49536752  0.95692830  0.48301230    -0.55800
O14         O  0.57231484  0.12800750  0.06015784    -0.57000
C15         C  0.55797245  0.12460365  0.46080288     0.75600
O16         O  0.51532097  0.06585562  0.01562388    -0.58100
C17         C  0.55917701  0.11856019  0.08357056     0.75600
C18         C  0.51267485  0.12629926  0.03149453     0.78000
Cd19       Cd  0.54093327  0.10762930  0.02197419     1.37500
O20         O  0.57147742  0.13116193  0.48366458    -0.57000
O21         O  0.53433403  0.13820527  0.03141221    -0.55800
C22         C  0.53133017  0.06180433  0.01442348     0.78000
O23         O  0.50359277  0.10509674  0.02621527    -0.58200
O24         O  0.53683576  0.11217094  0.46702620    -0.56600
O25         O  0.53843574  0.10397620  0.07796586    -0.56600
O26         O  0.55137128  0.07883437  0.01774073    -0.55800
O27         O  0.57631130  0.07026242  0.26778388    -0.57000
C28         C  0.63740100  0.13342906  0.28314454     0.75600
O29         O  0.57671526  0.12834803  0.23382412    -0.58100
C30         C  0.55529815  0.06370828  0.26657909     0.75600
C31         C  0.58090832  0.12213673  0.33335061     0.78000
Cd32       Cd  0.58949838  0.11121677  0.27260946     1.37500
O33         O  0.62526017  0.11202225  0.27876636    -0.57000
O34         O  0.58888699  0.10954568  0.32830917    -0.55800
C35         C  0.58627117  0.12478120  0.21091153     0.78000
O36         O  0.57561820  0.12926016  0.30971264    -0.58200
O37         O  0.62734565  0.14437505  0.28103091    -0.56600
O38         O  0.55045612  0.07894799  0.26960245    -0.56600
O39         O  0.59867963  0.11685081  0.21717170    -0.55800
O40         O  0.41715197  0.92302863  0.22956251    -0.57000
C41         C  0.48597130  0.96895431  0.24600981     0.75600
O42         O  0.46414470  0.90306703  0.27304743    -0.58100
C43         C  0.40408628  0.90152102  0.22769343     0.75600
C44         C  0.46035108  0.91182674  0.17372727     0.78000
Cd45       Cd  0.45200004  0.92184787  0.23590020     1.37500
O46         O  0.46524854  0.96254508  0.24155797    -0.57000
O47         O  0.45380183  0.92545793  0.17987313    -0.55800
C48         C  0.45525320  0.90688413  0.29655633     0.78000
O49         O  0.46419853  0.90300243  0.19681749    -0.58200
O50         O  0.49091003  0.95371082  0.24436620    -0.56600
O51         O  0.41325127  0.88991103  0.23191710    -0.56600
O52         O  0.44350951  0.91572169  0.29128202    -0.55800
O53         O  0.46477913  0.57534441  0.19145258    -0.57000
C54         C  0.48562249  0.58415322  0.29060957     0.75600
O55         O  0.52440841  0.57417699  0.23038650    -0.58100
C56         C  0.47731960  0.58083223  0.16709234     0.75600
C57         C  0.52571304  0.63669034  0.21828025     0.78000
Cd58       Cd  0.49810305  0.58817347  0.22642978     1.37500
O59         O  0.47011233  0.57795562  0.27040884    -0.57000
O60         O  0.50485674  0.62650650  0.22665535    -0.55800
C61         C  0.50889640  0.55312848  0.22992419     0.78000
O62         O  0.53426712  0.62433675  0.21504900    -0.58200
O63         O  0.50599002  0.59360807  0.28060507    -0.56600
O64         O  0.49831144  0.58836285  0.17095610    -0.56600
O65         O  0.48870162  0.54850764  0.22583815    -0.55800
O66         O  0.57534417  0.46591460  0.23294581    -0.57000
C67         C  0.56151403  0.46192762  0.33057526     0.75600
O68         O  0.51405008  0.46218403  0.25964387    -0.58100
C69         C  0.56342744  0.45626376  0.20911731     0.75600
C70         C  0.51686342  0.40202976  0.27945108     0.78000
Cd71       Cd  0.54231311  0.45043017  0.26943264     1.37500
O72         O  0.57414671  0.46518148  0.30693213    -0.57000
O73         O  0.53844045  0.41385582  0.27687240    -0.55800
C74         C  0.52921680  0.48336504  0.25918842     0.78000
O75         O  0.50649218  0.41263217  0.27608362    -0.58200
O76         O  0.54051177  0.45379532  0.32562959    -0.56600
O77         O  0.54227229  0.44240449  0.21391709    -0.56600
O78         O  0.54939727  0.48852658  0.26446522    -0.55800
O79         O  0.58374548  0.47198653  0.05737225    -0.57000
C80         C  0.58905893  0.48636225  0.45806926     0.75600
O81         O  0.58065155  0.53052345  0.01619375    -0.58100
C82         C  0.58723557  0.48409124  0.08146995     0.75600
C83         C  0.64356294  0.53121457  0.02525121     0.78000
Cd84       Cd  0.59494920  0.50419131  0.02037613     1.37500
O85         O  0.58171056  0.47289362  0.48124392    -0.57000
O86         O  0.63263097  0.51014923  0.01864716    -0.55800
C87         C  0.55970161  0.51458652  0.01580105     0.78000
O88         O  0.63182634  0.54049346  0.02814801    -0.58200
O89         O  0.60064468  0.50748782  0.46414774    -0.56600
O90         O  0.59386903  0.50480374  0.07687216    -0.56600
O91         O  0.55565210  0.49454875  0.01869169    -0.55800
O92         O  0.46201726  0.57245869  0.01743064    -0.57000
C93         C  0.46363095  0.56008386  0.41985500     0.75600
O94         O  0.46646461  0.51524968  0.49054292    -0.58100
C95         C  0.45189239  0.55929781  0.04041759     0.75600
C96         C  0.40388471  0.50985321  0.46718301     0.78000
Cd97       Cd  0.45125948  0.54024043  0.48054463     1.37500
O98         O  0.45894587  0.56990773  0.44108956    -0.57000
O99         O  0.41343931  0.53129535  0.46901644    -0.55800
C100        C  0.48718527  0.53155942  0.49244036     0.78000
O101        O  0.41623204  0.50167849  0.47301051    -0.58200
O102        O  0.46299142  0.54202964  0.42726202    -0.56600
O103        O  0.44043265  0.53814825  0.03472266    -0.56600
O104        O  0.49083281  0.55139850  0.48865250    -0.55800
O105        O  0.93433267  0.41559092  0.03093345    -0.57000
C106        C  0.98172512  0.48418862  0.01812550     0.75600
O107        O  0.91910208  0.46755552  0.49071140    -0.58100
C108        C  0.91271731  0.40295016  0.03324406     0.75600
C109        C  0.92267601  0.45838862  0.08969900     0.78000
Cd110      Cd  0.93399235  0.45110047  0.02753362     1.37500
O111        O  0.97450579  0.46305566  0.01821942    -0.57000
O112        O  0.93630644  0.45169753  0.08399689    -0.55800
C113        C  0.92092143  0.45780088  0.46672653     0.78000
O114        O  0.91438524  0.46253758  0.06632984    -0.58200
O115        O  0.96706492  0.48944984  0.02448146    -0.56600
O116        O  0.90165479  0.41291557  0.03229537    -0.56600
O117        O  0.92642185  0.44321915  0.47134344    -0.55800
O118        O  0.11755820  0.62518969  0.46422817    -0.57000
C119        C  0.07413339  0.55575797  0.48210042     0.75600
O120        O  0.14124930  0.57984751  0.43517668    -0.58100
C121        C  0.13879563  0.63963166  0.46668469     0.75600
C122        C  0.13497217  0.58912956  0.03368150     0.78000
Cd123      Cd  0.12107547  0.59175724  0.47232580     1.37500
O124        O  0.07992740  0.57636451  0.47853249    -0.57000
O125        O  0.12321079  0.59792734  0.02831046    -0.55800
C126        C  0.13415988  0.58481152  0.41125758     0.78000
O127        O  0.14178842  0.58303023  0.01011684    -0.58200
O128        O  0.08998881  0.55171430  0.47894905    -0.56600
O129        O  0.15133956  0.63177663  0.47275037    -0.56600
O130        O  0.12105442  0.59224162  0.41599018    -0.55800
O131        O  0.14213813  0.57663334  0.18502491    -0.57000
C132        C  0.13743921  0.56172202  0.28384440     0.75600
O133        O  0.08004879  0.51781475  0.23036986    -0.58100
C134        C  0.13284531  0.56424276  0.16131367     0.75600
C135        C  0.13947519  0.51546011  0.21245025     0.78000
Cd136      Cd  0.12157267  0.54428391  0.22235264     1.37500
O137        O  0.14216280  0.57525844  0.26113955    -0.57000
O138        O  0.15194101  0.53697068  0.21496332    -0.55800
C139        C  0.07534975  0.53328992  0.23222083     0.78000
O140        O  0.11805141  0.50681453  0.21544051    -0.58200
O141        O  0.12702203  0.54071397  0.27732157    -0.56600
O142        O  0.11867187  0.54326164  0.16616343    -0.56600
O143        O  0.09193310  0.55351554  0.22805437    -0.55800
O144        O  0.91797866  0.47136530  0.24050521    -0.57000
C145        C  0.92790412  0.48577895  0.33866791     0.75600
O146        O  0.98016473  0.53188083  0.26509554    -0.58100
C147        C  0.92247078  0.48383972  0.21661483     0.75600
C148        C  0.91979739  0.53281029  0.28143691     0.78000
Cd149      Cd  0.93896100  0.50457751  0.27640393     1.37500
O150        O  0.91761977  0.47335574  0.31538467    -0.57000
O151        O  0.90817643  0.51152353  0.27648463    -0.55800
C152        C  0.98528619  0.51668885  0.26401117     0.78000
O153        O  0.94125409  0.54173380  0.28356644    -0.58200
O154        O  0.94319446  0.50630243  0.33277407    -0.56600
O155        O  0.93337392  0.50514505  0.22115057    -0.56600
O156        O  0.96921310  0.49655154  0.27020250    -0.55800
O157        O  0.24663624  0.79352760  0.21449035    -0.57000
C158        C  0.25810209  0.81142905  0.11693908     0.75600
O159        O  0.24927452  0.85572885  0.17378552    -0.58100
C160        C  0.25223167  0.80564611  0.23891724     0.75600
C161        C  0.30903544  0.85332198  0.19114040     0.78000
Cd162      Cd  0.26111857  0.82745666  0.17939380     1.37500
O163        O  0.24877917  0.79752996  0.13941760    -0.57000
O164        O  0.29817171  0.83216900  0.18528933    -0.55800
C165        C  0.22802018  0.84091093  0.17295618     0.78000
O166        O  0.29790661  0.86324599  0.18905727    -0.58200
O167        O  0.27025144  0.83233236  0.12399823    -0.56600
O168        O  0.26007189  0.82670882  0.23527470    -0.56600
O169        O  0.22246357  0.82044047  0.17709765    -0.55800
O170        O  0.13511398  0.90226771  0.17741631    -0.57000
C171        C  0.13074627  0.89175348  0.07752207     0.75600
O172        O  0.13594102  0.84492875  0.14409912    -0.58100
C173        C  0.12665266  0.88857432  0.20029494     0.75600
C174        C  0.07373378  0.84502835  0.13056867     0.78000
Cd175      Cd  0.12251919  0.87164073  0.13815807     1.37500
O176        O  0.13599885  0.90430696  0.10150106    -0.57000
O177        O  0.08497907  0.86629373  0.13585471    -0.55800
C178        C  0.15709489  0.86017080  0.14478669     0.78000
O179        O  0.08514219  0.83531495  0.13013648    -0.58200
O180        O  0.12280616  0.87075888  0.08210367    -0.56600
O181        O  0.11515019  0.86752721  0.19385706    -0.56600
O182        O  0.16209098  0.88045938  0.14060511    -0.55800
O183        O  0.24526521  0.79287660  0.38828454    -0.57000
C184        C  0.23373740  0.79257704  0.48773140     0.75600
O185        O  0.18855632  0.79731999  0.42019233    -0.58100
C186        C  0.23162882  0.78203878  0.36630703     0.75600
C187        C  0.18602502  0.73600095  0.44065174     0.78000
Cd188      Cd  0.21449455  0.78321550  0.42706192     1.37500
O189        O  0.24661151  0.79733538  0.46390566    -0.57000
O190        O  0.20756928  0.74617692  0.43794095    -0.55800
C191        C  0.20425736  0.81822739  0.41834448     0.78000
O192        O  0.17692361  0.74756154  0.43507206    -0.58200
O193        O  0.21273607  0.78447383  0.48298751    -0.56600
O194        O  0.21054213  0.77104355  0.37322261    -0.56600
O195        O  0.22450717  0.82269234  0.42090405    -0.55800
O196        O  0.14149889  0.90697489  0.35095825    -0.57000
C197        C  0.15565084  0.92009043  0.45010771     0.75600
O198        O  0.20194140  0.91189530  0.39534446    -0.58100
C199        C  0.15472328  0.91329196  0.32728197     0.75600
C200        C  0.19845922  0.97155448  0.38003299     0.78000
Cd201      Cd  0.17359210  0.92345977  0.38847794     1.37500
O202        O  0.14230174  0.91124701  0.42722127    -0.57000
O203        O  0.17706984  0.95998164  0.38516512    -0.55800
C204        C  0.18685407  0.89071719  0.39591544     0.78000
O205        O  0.20875875  0.96072792  0.37983879    -0.58200
O206        O  0.17686299  0.93116717  0.44391889    -0.56600
O207        O  0.17591734  0.92350921  0.33248979    -0.56600
O208        O  0.16641613  0.88536311  0.39212728    -0.55800
O209        O  0.90908190  0.79991379  0.38826614    -0.57000
C210        C  0.89578981  0.79461376  0.28919643     0.75600
O211        O  0.85174478  0.73717326  0.34031916    -0.58100
C212        C  0.89637846  0.79013858  0.41190314     0.75600
C213        C  0.84836039  0.79646248  0.35956087     0.78000
Cd214      Cd  0.87738503  0.77874561  0.35040528     1.37500
O215        O  0.90895467  0.80076080  0.31239517    -0.57000
O216        O  0.86944366  0.80882581  0.35268376    -0.55800
C217        C  0.86787983  0.73331388  0.33896757     0.78000
O218        O  0.84010739  0.77509849  0.36077668    -0.58200
O219        O  0.87453907  0.78303695  0.29514287    -0.56600
O220        O  0.87571193  0.77517374  0.40656499    -0.56600
O221        O  0.88765353  0.75018885  0.34435481    -0.55800
O222        O  0.81412358  0.57687684  0.35703078    -0.57000
C223        C  0.81911619  0.58197194  0.25320145     0.75600
O224        O  0.86664688  0.63868274  0.31324817    -0.58100
C225        C  0.82898731  0.58875632  0.37738036     0.75600
C226        C  0.86943506  0.57795330  0.30249313     0.78000
Cd227      Cd  0.84130076  0.59678876  0.31228088     1.37500
O228        O  0.80725420  0.57426484  0.27809364    -0.57000
O229        O  0.84851483  0.56610665  0.31038252    -0.55800
C230        C  0.85047211  0.64251651  0.31356079     0.78000
O231        O  0.87819119  0.59939734  0.30091802    -0.58200
O232        O  0.84024494  0.59633142  0.25633203    -0.56600
O233        O  0.84908757  0.60240795  0.36737289    -0.56600
O234        O  0.83044222  0.62517966  0.31169594    -0.55800
O235        O  0.96317279  0.77985496  0.10486428    -0.57000
C236        C  0.89385224  0.73261174  0.09523130     0.75600
O237        O  0.91457614  0.79954437  0.13710991    -0.58100
C238        C  0.97617996  0.80136710  0.10725624     0.75600
C239        C  0.92117609  0.79440270  0.03975972     0.78000
Cd240      Cd  0.92766680  0.78061375  0.10015497     1.37500
O241        O  0.91492591  0.74001341  0.09116236    -0.57000
O242        O  0.93605267  0.78930964  0.04456379    -0.55800
C243        C  0.91913266  0.79218568  0.16114434     0.78000
O244        O  0.91057335  0.79519820  0.06358620    -0.58200
O245        O  0.88897698  0.74736949  0.10239945    -0.56600
O246        O  0.96661151  0.81275510  0.10495429    -0.56600
O247        O  0.92761286  0.77996880  0.15668687    -0.55800
O248        O  0.75313127  0.59416969  0.05745425    -0.57000
C249        C  0.82070263  0.63822681  0.07830864     0.75600
O250        O  0.79842898  0.57193346  0.10420815    -0.58100
C251        C  0.73989585  0.57302276  0.05219778     0.75600
C252        C  0.80302139  0.58731340  0.50659183     0.78000
Cd253      Cd  0.78712251  0.59134638  0.06659914     1.37500
O254        O  0.80004243  0.63193651  0.07325031    -0.57000
O255        O  0.80330957  0.60494089  0.51561699    -0.55800
C256        C  0.78942150  0.57563730  0.12766329     0.78000
O257        O  0.79432364  0.56978762  0.02515438    -0.58200
O258        O  0.82526940  0.62267033  0.07820283    -0.56600
O259        O  0.74851495  0.56081478  0.05477870    -0.56600
O260        O  0.77791600  0.58468886  0.12219649    -0.55800
O261        O  0.79966018  0.89835754  0.43413739    -0.57000
C262        C  0.79284916  0.88890161  0.33339897     0.75600
O263        O  0.77782981  0.83223956  0.38554827    -0.58100
C264        C  0.79083989  0.88470767  0.45701683     0.75600
C265        C  0.73255062  0.85687920  0.39905674     0.78000
Cd266      Cd  0.77891040  0.86834024  0.39430646     1.37500
O267        O  0.79902089  0.90140194  0.35750611    -0.57000
O268        O  0.74929477  0.87709823  0.39543367    -0.55800
C269        C  0.79940602  0.84197627  0.38761546     0.78000
O270        O  0.73711913  0.84126561  0.39870973    -0.58200
O271        O  0.78050962  0.86762251  0.33797573    -0.56600
O272        O  0.77763861  0.86385157  0.45032958    -0.56600
O273        O  0.81034111  0.86283740  0.39518088    -0.55800
O274        O  0.57396895  0.80156416  0.38924876    -0.57000
C275        C  0.58177418  0.81069787  0.48817495     0.75600
O276        O  0.63819842  0.85784679  0.42331451    -0.58100
C277        C  0.58221399  0.81479117  0.36590162     0.75600
C278        C  0.57818202  0.86096227  0.43675039     0.78000
Cd279      Cd  0.59609542  0.83187696  0.42796628     1.37500
O280        O  0.57463121  0.79842433  0.46392463    -0.57000
O281        O  0.56590887  0.84027258  0.42857807    -0.55800
C282        C  0.64231919  0.84193152  0.42256425     0.78000
O283        O  0.59946409  0.86889056  0.43904009    -0.58200
O284        O  0.59537391  0.83185423  0.48400922    -0.56600
O285        O  0.59582806  0.83574916  0.37166526    -0.56600
O286        O  0.62518972  0.82186013  0.42545086    -0.55800
O287        O  0.59312801  0.74592287  0.18511080    -0.57000
C288        C  0.64024157  0.81587681  0.17485909     0.75600
O289        O  0.57169191  0.79044922  0.13866500    -0.58100
C290        C  0.57160514  0.73312276  0.18872461     0.75600
C291        C  0.57989353  0.78992727  0.23769484     0.78000
Cd292      Cd  0.59215530  0.78096481  0.17748352     1.37500
O293        O  0.63354061  0.79487281  0.17334552    -0.57000
O294        O  0.58809609  0.77747199  0.23334375    -0.55800
C295        C  0.57825429  0.78374268  0.11550570     0.78000
O296        O  0.57649340  0.79817395  0.21355206    -0.58200
O297        O  0.62470348  0.82030544  0.17826848    -0.56600
O298        O  0.55996912  0.74228853  0.18478161    -0.56600
O299        O  0.58997565  0.77502327  0.12153245    -0.55800
O300        O  0.78464575  0.95818320  0.13632109    -0.57000
C301        C  0.73583103  0.88697741  0.15489349     0.75600
O302        O  0.79866436  0.90479465  0.10929062    -0.58100
C303        C  0.80634118  0.97074978  0.13529396     0.75600
C304        C  0.79815530  0.91870989  0.20732174     0.78000
Cd305      Cd  0.78361072  0.92214043  0.14615174     1.37500
O306        O  0.74237437  0.90798349  0.15599473    -0.57000
O307        O  0.78811492  0.92932659  0.20216940    -0.55800
C308        C  0.79232613  0.91049470  0.08527843     0.78000
O309        O  0.80317215  0.91101511  0.18365536    -0.58200
O310        O  0.75123388  0.88273704  0.14879818    -0.56600
O311        O  0.81709628  0.96082629  0.14058218    -0.56600
O312        O  0.78266957  0.92163283  0.08966478    -0.55800
O313        O  0.46473349  0.23165855  0.01213307    -0.57000
C314        C  0.46383733  0.22474292  0.11111143     0.75600
O315        O  0.40365188  0.17632330  0.06400151    -0.58100
C316        C  0.45350723  0.22056539  0.48805274     0.75600
C317        C  0.46524069  0.17438390  0.05080640     0.78000
Cd318      Cd  0.44554325  0.20201776  0.05290216     1.37500
O319        O  0.46800238  0.23623202  0.08630578    -0.57000
O320        O  0.47689370  0.19597221  0.05125290    -0.55800
C321        C  0.39939692  0.19213762  0.06244920     0.78000
O322        O  0.44360758  0.16496394  0.05142526    -0.58200
O323        O  0.45243909  0.20326370  0.10827985    -0.56600
O324        O  0.44258049  0.19722769  0.99636685    -0.56600
O325        O  0.41623959  0.21170126  0.05570144    -0.55800
O326        O  0.24477153  0.13506455  0.06119042    -0.57000
C327        C  0.24936557  0.14675555  0.16147505     0.75600
O328        O  0.30485063  0.19187453  0.09152865    -0.58100
C329        C  0.24925265  0.14830227  0.03819787     0.75600
C330        C  0.24416501  0.19427630  0.10746186     0.78000
Cd331      Cd  0.26276944  0.16599013  0.09985006     1.37500
O332        O  0.23970647  0.13424304  0.13796205    -0.57000
O333        O  0.23202734  0.17287564  0.10348723    -0.55800
C334        C  0.30873768  0.17576582  0.09109893     0.78000
O335        O  0.26571331  0.20313545  0.10693228    -0.58200
O336        O  0.26535257  0.16705624  0.15591733    -0.56600
O337        O  0.25774666  0.16921681  0.04423176    -0.56600
O338        O  0.29165692  0.15602289  0.09634631    -0.55800
O339        O  0.26202880  0.08120752  0.35034440    -0.57000
C340        C  0.30763254  0.14999468  0.33448324     0.75600
O341        O  0.24208618  0.13023286  0.31209416    -0.58100
C342        C  0.24074523  0.06822829  0.35577202     0.75600
C343        C  0.25280926  0.12525412  0.41033188     0.78000
Cd344      Cd  0.26044103  0.11613465  0.34721592     1.37500
O345        O  0.30087568  0.12902893  0.33675855    -0.57000
O346        O  0.26769807  0.12059576  0.40261025    -0.55800
C347        C  0.24304252  0.11963405  0.28846101     0.78000
O348        O  0.24152179  0.12666796  0.38832932    -0.58200
O349        O  0.29254702  0.15498633  0.33887531    -0.56600
O350        O  0.22898040  0.07746791  0.35549184    -0.56600
O351        O  0.25015394  0.10631377  0.29297595    -0.55800
O352        O  0.44834451  0.29011896  0.29058183    -0.57000
C353        C  0.40110940  0.22170615  0.30465006     0.75600
O354        O  0.47171786  0.24592891  0.26169918    -0.58100
C355        C  0.46928536  0.30379712  0.29660194     0.75600
C356        C  0.45942134  0.24630055  0.35898840     0.78000
Cd357      Cd  0.44923175  0.25535377  0.29831910     1.37500
O358        O  0.40853368  0.24281977  0.30692744    -0.57000
O359        O  0.45480517  0.26149019  0.35400912    -0.55800
C360        C  0.46443320  0.25034413  0.23748789     0.78000
O361        O  0.46160891  0.23654645  0.33527205    -0.58200
O362        O  0.41576660  0.21662531  0.29740870    -0.56600
O363        O  0.48053531  0.29478451  0.30425554    -0.56600
O364        O  0.45072907  0.25710862  0.24182597    -0.55800
O365        O  0.79843015  0.24052156  0.35515614    -0.57000
C366        C  0.79269165  0.23105569  0.25562713     0.75600
O367        O  0.79575509  0.18168423  0.32089549    -0.58100
C368        C  0.79021447  0.22694000  0.37814393     0.75600
C369        C  0.73436633  0.18317607  0.31053068     0.78000
Cd370      Cd  0.78338881  0.20971608  0.31578471     1.37500
O371        O  0.79793094  0.24324119  0.27996113    -0.57000
O372        O  0.74540773  0.20442991  0.31585493    -0.55800
C373        C  0.81699877  0.19661963  0.31944611     0.78000
O374        O  0.74611035  0.17385852  0.30855301    -0.58200
O375        O  0.78334540  0.20979051  0.25970074    -0.56600
O376        O  0.77748802  0.20596865  0.37182074    -0.56600
O377        O  0.82216138  0.21686369  0.31450863    -0.55800
O378        O  0.91027185  0.13660245  0.38744081    -0.57000
C379        C  0.92387158  0.15220195  0.28816806     0.75600
O380        O  0.91153298  0.19533235  0.34174174    -0.58100
C381        C  0.91636068  0.14966038  0.41099962     0.75600
C382        C  0.97321399  0.19280252  0.36060251     0.78000
Cd383      Cd  0.92506480  0.16856750  0.34984203     1.37500
O384        O  0.91440219  0.13819964  0.31056406    -0.57000
O385        O  0.96119653  0.17149249  0.35609390    -0.55800
C386        C  0.89041745  0.17985222  0.34141494     0.78000
O387        O  0.96300632  0.20367969  0.35825373    -0.58200
O388        O  0.93471002  0.17316180  0.29522255    -0.56600
O389        O  0.92491625  0.17070457  0.40579662    -0.56600
O390        O  0.88567874  0.15971889  0.34636065    -0.55800
O391        O  0.80538108  0.24416056  0.03016000    -0.57000
C392        C  0.81864564  0.25540117  0.12783675     0.75600
O393        O  0.86462665  0.24446747  0.07315857    -0.58100
C394        C  0.81798190  0.24711534  0.50589752     0.75600
C395        C  0.86589504  0.30563678  0.05658543     0.78000
Cd396      Cd  0.83770780  0.25763678  0.06698417     1.37500
O397        O  0.80600487  0.24603983  0.10449198    -0.57000
O398        O  0.84433414  0.29497053  0.05950865    -0.55800
C399        C  0.84924479  0.22352916  0.07619485     0.78000
O400        O  0.87510599  0.29392686  0.05971724    -0.58200
O401        O  0.83996099  0.26716176  0.12238873    -0.56600
O402        O  0.83862015  0.25483632  0.01076696    -0.56600
O403        O  0.82882886  0.21868505  0.07426228    -0.55800
O404        O  0.90983501  0.12853398  0.06062782    -0.57000
C405        C  0.90046432  0.12789428  0.16053412     0.75600
O406        O  0.85200139  0.12996918  0.09794085    -0.58100
C407        C  0.89582609  0.12145689  0.03833417     0.75600
C408        C  0.85309191  0.06831895  0.10895262     0.78000
Cd409      Cd  0.87945564  0.11703367  0.10098981     1.37500
O410        O  0.91274953  0.13476600  0.13598450    -0.57000
O411        O  0.87461894  0.07953436  0.10487941    -0.55800
C412        C  0.86730159  0.15107328  0.09689714     0.78000
O413        O  0.84346355  0.07978115  0.10825159    -0.58200
O414        O  0.87903833  0.11590719  0.15720074    -0.56600
O415        O  0.87483003  0.11142324  0.04556555    -0.56600
O416        O  0.88771855  0.15597214  0.09891326    -0.55800
O417        O  0.24322581  0.46670645  0.22981020    -0.57000
C418        C  0.23278782  0.46130348  0.12977919     0.75600
O419        O  0.18803173  0.40462105  0.18173889    -0.58100
C420        C  0.22966830  0.45628322  0.25250493     0.75600
C421        C  0.18616528  0.46638672  0.19352119     0.78000
Cd422      Cd  0.21331038  0.44594714  0.19028767     1.37500
O423        O  0.24581417  0.46625374  0.15297135    -0.57000
O424        O  0.20777619  0.47750308  0.19155443    -0.55800
C425        C  0.20392715  0.40037441  0.18167556     0.78000
O426        O  0.17632797  0.44475183  0.19414496    -0.58200
O427        O  0.21151476  0.45056530  0.13538139    -0.56600
O428        O  0.20926177  0.44125091  0.24590780    -0.56600
O429        O  0.22381793  0.41715538  0.18680060    -0.55800
O430        O  0.14008281  0.23998240  0.18714902    -0.57000
C431        C  0.14940904  0.25030635  0.08769494     0.75600
O432        O  0.19856078  0.30349557  0.15370622    -0.58100
C433        C  0.15371398  0.24587981  0.20977197     0.75600
C434        C  0.19652851  0.24118890  0.13487330     0.78000
Cd435      Cd  0.17060369  0.26173732  0.14764078     1.37500
O436        O  0.13711976  0.24326601  0.11224258    -0.57000
O437        O  0.17525740  0.22978593  0.14073640    -0.55800
C438        C  0.18315677  0.30835197  0.15599433     0.78000
O439        O  0.20648604  0.26276945  0.13677618    -0.58200
O440        O  0.17075359  0.26297343  0.09136493    -0.56600
O441        O  0.17480897  0.25795289  0.20304131    -0.56600
O442        O  0.16279926  0.29180493  0.15341615    -0.55800
O443        O  0.29376497  0.44086091  0.44322923    -0.57000
C444        C  0.22298937  0.39647237  0.43151174     0.75600
O445        O  0.25106042  0.46483505  0.47876473    -0.58100
C446        C  0.30752273  0.46227344  0.44088049     0.75600
C447        C  0.25442793  0.45787594  0.37953097     0.78000
Cd448      Cd  0.25915617  0.44316197  0.43949767     1.37500
O449        O  0.24369290  0.40202179  0.43334775    -0.57000
O450        O  0.26606352  0.44884390  0.38414514    -0.55800
C451        C  0.25422295  0.45540013  0.50173203     0.78000
O452        O  0.24563721  0.46145657  0.40336528    -0.58200
O453        O  0.21917436  0.41240250  0.43502386    -0.56600
O454        O  0.29867467  0.47421964  0.43729091    -0.56600
O455        O  0.25881645  0.44029312  0.49550460    -0.55800
O456        O  0.08373284  0.25880300  0.38983055    -0.57000
C457        C  0.15229746  0.30291684  0.40475152     0.75600
O458        O  0.12946496  0.23782991  0.43660833    -0.58100
C459        C  0.06962468  0.23741517  0.39021820     0.75600
C460        C  0.12628680  0.24331732  0.33694529     0.78000
Cd461      Cd  0.11744756  0.25577023  0.39745471     1.37500
O462        O  0.13150244  0.29688564  0.40244365    -0.57000
O463        O  0.11749760  0.25527169  0.34103942    -0.55800
C464        C  0.12092922  0.24258926  0.45959264     0.78000
O465        O  0.13126842  0.23659978  0.36124616    -0.58200
O466        O  0.15663600  0.28735412  0.40143876    -0.56600
O467        O  0.07786449  0.22505047  0.39533350    -0.56600
O468        O  0.10933607  0.25139905  0.45327711    -0.55800
C469        C  0.17053080  0.32677323  0.41161256     0.00700
C470        C  0.16640189  0.34436904  0.40644927    -0.11200
C471        C  0.18300776  0.36712086  0.41301669     0.02900
C472        C  0.20436476  0.37265121  0.42517449     0.00600
C473        C  0.20837008  0.35500825  0.43058880    -0.11100
C474        C  0.19175911  0.33228793  0.42415715     0.02800
H475        H  0.15019767  0.34038908  0.39691413     0.15800
H476        H  0.22453608  0.35893385  0.44020024     0.15800
C477        C  0.19682900  0.31503370  0.43176079     0.37400
C478        C  0.17776243  0.38433313  0.40601579     0.37300
N479        N  0.20083087  0.30118363  0.43792856    -0.42900
N480        N  0.17343808  0.39802126  0.40030028    -0.42900
C481        C  0.13966428  0.24452132  0.05610583     0.00700
C482        C  0.11928388  0.24376403  0.05026033    -0.11200
C483        C  0.11120380  0.23762912  0.51731879     0.02900
C484        C  0.12588632  0.24004659  0.49225715     0.00600
C485        C  0.14311049  0.23872327  0.00083545    -0.11100
C486        C  0.15129597  0.24134763  0.03111773     0.02800
H487        H  0.11013988  0.24599453  0.06931061     0.15800
H488        H  0.15885204  0.24537066  0.47984851     0.15800
C489        C  0.17196618  0.24116851  0.03576813     0.37400
C490        C  0.08855870  0.23332182  0.51223349     0.37300
N491        N  0.18857986  0.24113848  0.03950554    -0.42900
N492        N  0.07041938  0.22991775  0.50821185    -0.42900
C493        C  0.14547252  0.24037832  0.24258897     0.00700
C494        C  0.12313069  0.23487676  0.24975003    -0.11200
C495        C  0.11599136  0.23412123  0.28059445     0.02900
C496        C  0.13121138  0.23862210  0.30510861     0.00600
C497        C  0.15271440  0.24185533  0.29823494    -0.11100
C498        C  0.16003041  0.24293251  0.26732433     0.02800
H499        H  0.11155917  0.23241636  0.23120096     0.15800
H500        H  0.16441004  0.24505028  0.31695399     0.15800
C501        C  0.18281876  0.24743010  0.26185244     0.37400
C502        C  0.09305102  0.22909161  0.28649681     0.37300
N503        N  0.20110801  0.25109111  0.25753276    -0.42900
N504        N  0.07465804  0.22500094  0.29128591    -0.42900
C505        C  0.24144657  0.46592766  0.09735306     0.00700
C506        C  0.26020369  0.46396025  0.08959147    -0.11200
C507        C  0.26527961  0.46202150  0.05854874     0.02900
C508        C  0.25174798  0.46259880  0.03457115     0.00600
C509        C  0.23452829  0.46698045  0.04219587    -0.11100
C510        C  0.22912405  0.46840765  0.07329594     0.02800
H511        H  0.26989967  0.46223682  0.10783703     0.15800
H512        H  0.22429973  0.46782726  0.02394971     0.15800
C513        C  0.21031029  0.47157179  0.07987723     0.37400
C514        C  0.28405214  0.45877246  0.05204499     0.37300
N515        N  0.19518645  0.47401544  0.08520647    -0.42900
N516        N  0.29904022  0.45609755  0.04681889    -0.42900
C517        C  0.23715907  0.46070936  0.28519991     0.00700
C518        C  0.25944362  0.46651469  0.29217781    -0.11200
C519        C  0.26599033  0.46721722  0.32301219     0.02900
C520        C  0.25014464  0.46233100  0.34755046     0.00600
C521        C  0.22852650  0.45849651  0.34065946    -0.11100
C522        C  0.22188106  0.45751693  0.30982616     0.02800
H523        H  0.27143237  0.46939253  0.27348882     0.15800
H524        H  0.21629319  0.45493223  0.35929915     0.15800
C525        C  0.19918131  0.45292150  0.30411603     0.37400
C526        C  0.28897123  0.47268357  0.32880024     0.37300
N527        N  0.18102196  0.44924520  0.29937525    -0.42900
N528        N  0.30738886  0.47709191  0.33348462    -0.42900
C529        C  0.18844704  0.33196412  0.16194821     0.00700
C530        C  0.21112354  0.34945906  0.16766540    -0.11200
C531        C  0.21676476  0.37181917  0.17414810     0.02900
C532        C  0.19936546  0.37704628  0.17544974     0.00600
C533        C  0.17677490  0.35954142  0.16966025    -0.11100
C534        C  0.17119806  0.33736012  0.16277987     0.02800
H535        H  0.22458835  0.34570593  0.16705257     0.15800
H536        H  0.16323434  0.36318883  0.17018145     0.15800
C537        C  0.14754040  0.32076043  0.15622882     0.37400
C538        C  0.24059903  0.38886842  0.17882784     0.37300
N539        N  0.12857418  0.30755179  0.15089016    -0.42900
N540        N  0.25976948  0.40237536  0.18235997    -0.42900
C541        C  0.86215635  0.16936537  0.09274674     0.00700
C542        C  0.88052903  0.19188657  0.08772876    -0.11200
C543        C  0.87692391  0.20978839  0.08246563     0.02900
C544        C  0.85439943  0.20540115  0.08192237     0.00600
C545        C  0.83603759  0.18292891  0.08731870    -0.11100
C546        C  0.83966688  0.16505881  0.09281584     0.02800
H547        H  0.89794401  0.19561682  0.08764367     0.15800
H548        H  0.81862535  0.17920410  0.08740495     0.15800
C549        C  0.81993158  0.14262946  0.09885660     0.37400
C550        C  0.89677043  0.23236076  0.07761820     0.37300
N551        N  0.80411901  0.12466742  0.10381121    -0.42900
N552        N  0.91271299  0.25043596  0.07382343    -0.42900
C553        C  0.99781134  0.20418733  0.36870662     0.00700
C554        C  0.01147063  0.22814823  0.36873177    -0.11200
C555        C  0.03475940  0.23957211  0.37614765     0.02900
C556        C  0.04483093  0.22690515  0.38412113     0.00600
C557        C  0.03100077  0.20301068  0.38477928    -0.11100
C558        C  0.00792550  0.19161917  0.37707335     0.02800
H559        H  0.00402039  0.23806541  0.36254500     0.15800
H560        H  0.03830290  0.19294520  0.39092597     0.15800
C561        C  0.99537704  0.16697652  0.37811651     0.37400
C562        C  0.04772449  0.26419516  0.37482184     0.37300
N563        N  0.98564708  0.14724933  0.37895869    -0.42900
N564        N  0.05793908  0.28392873  0.37361768    -0.42900
C565        C  0.91017420  0.13400318  0.19186591     0.00700
C566        C  0.90297733  0.11671030  0.21418393    -0.11200
C567        C  0.90875366  0.12200144  0.24549757     0.02900
C568        C  0.92134407  0.14509609  0.25503105     0.00600
C569        C  0.92969344  0.16228144  0.23213186    -0.11100
C570        C  0.92421681  0.15694348  0.20085289     0.02800
H571        H  0.89236051  0.09899961  0.20719675     0.15800
H572        H  0.93955651  0.18011265  0.23877081     0.15800
C573        C  0.93143255  0.17538167  0.17896246     0.37400
C574        C  0.90125680  0.10337564  0.26710821     0.37300
N575        N  0.93710024  0.19016617  0.16148818    -0.42900
N576        N  0.89537462  0.08836089  0.28425128    -0.42900
C577        C  0.91349119  0.14100033  0.44317432     0.00700
C578        C  0.89474022  0.11927892  0.45053658    -0.11200
C579        C  0.88977214  0.11173769  0.48140716     0.02900
C580        C  0.90330161  0.12614246  0.00538571     0.00600
C581        C  0.92319484  0.14698953  0.99780110    -0.11100
C582        C  0.92860675  0.15448668  0.46707020     0.02800
H583        H  0.88331270  0.10859160  0.43233756     0.15800
H584        H  0.93422156  0.15794663  0.01614080     0.15800
C585        C  0.94899347  0.17645879  0.46085454     0.37400
C586        C  0.86935505  0.08964304  0.98740366     0.37300
N587        N  0.96531953  0.19408194  0.45600032    -0.42900
N588        N  0.85342020  0.07178197  0.99244601    -0.42900
C589        C  0.79739076  0.24047646  0.22363451     0.00700
C590        C  0.78266467  0.22655584  0.20008260    -0.11200
C591        C  0.78836414  0.23195344  0.16869740     0.02900
C592        C  0.80943171  0.25169844  0.16019084     0.00600
C593        C  0.82333362  0.26661022  0.18380913    -0.11100
C594        C  0.81740845  0.26128306  0.21532762     0.02800
H595        H  0.76702523  0.21071320  0.20622681     0.15800
H596        H  0.83940989  0.28199439  0.17769862     0.15800
C597        C  0.83299389  0.27659171  0.23848066     0.37400
C598        C  0.77304468  0.21580062  0.14602241     0.37300
N599        N  0.84547052  0.28889363  0.25703157    -0.42900
N600        N  0.76075570  0.20277134  0.12793668    -0.42900
C601        C  0.79596650  0.23453129  0.41087252     0.00700
C602        C  0.78104944  0.22038851  0.43469727    -0.11200
C603        C  0.78733973  0.22466120  0.46598352     0.02900
C604        C  0.80912904  0.24319687  0.47387913     0.00600
C605        C  0.82365979  0.25784245  0.45025503    -0.11100
C606        C  0.81725383  0.25385586  0.41906037     0.02800
H607        H  0.76466103  0.20548821  0.42880265     0.15800
H608        H  0.84036376  0.27228913  0.45615609     0.15800
C609        C  0.83354175  0.26913278  0.39601571     0.37400
C610        C  0.77175845  0.20891312  0.48922092     0.37300
N611        N  0.84666771  0.28145374  0.37767502    -0.42900
N612        N  0.75928767  0.19628819  0.50786260    -0.42900
C613        C  0.83522054  0.19134396  0.32396561     0.00700
C614        C  0.85788467  0.20796525  0.31551609    -0.11200
C615        C  0.87610776  0.20486513  0.32122106     0.02900
C616        C  0.87192316  0.18453529  0.33539949     0.00600
C617        C  0.84921183  0.16777095  0.34347538    -0.11100
C618        C  0.83103433  0.17106569  0.33831308     0.02800
H619        H  0.86151277  0.22369086  0.30459589     0.15800
H620        H  0.84562393  0.15212166  0.35459101     0.15800
C621        C  0.80857032  0.15384719  0.34959287     0.37400
C622        C  0.89881675  0.22285591  0.31196075     0.37300
N623        N  0.79064391  0.14011067  0.35895667    -0.42900
N624        N  0.91698189  0.23739057  0.30458359    -0.42900
C625        C  0.37690223  0.20361973  0.31122761     0.00700
C626        C  0.37165364  0.18116190  0.31590202    -0.11200
C627        C  0.34943148  0.16344107  0.32354229     0.02900
C628        C  0.33169196  0.16796938  0.32673835     0.00600
C629        C  0.33693549  0.19042205  0.32192748    -0.11100
C630        C  0.35916187  0.20813223  0.31424960     0.02800
H631        H  0.38506971  0.17738139  0.31398525     0.15800
H632        H  0.32356416  0.19425293  0.32399299     0.15800
C633        C  0.36298963  0.23058366  0.30917183     0.37400
C634        C  0.34560652  0.14093457  0.32808349     0.37300
N635        N  0.36592884  0.24852647  0.30509156    -0.42900
N636        N  0.34263659  0.12292906  0.33163614    -0.42900
C637        C  0.20893755  0.22969565  0.12617054     0.00700
C638        C  0.23269329  0.24115381  0.13025741    -0.11200
C639        C  0.24484162  0.23040421  0.12365515     0.02900
C640        C  0.23309362  0.20762806  0.11274586     0.00600
C641        C  0.20947413  0.19658359  0.10762137    -0.11100
C642        C  0.19743102  0.20734017  0.11386301     0.02800
H643        H  0.24177533  0.25843540  0.13923511     0.15800
H644        H  0.20020594  0.17932203  0.09856933     0.15800
C645        C  0.17342105  0.19512128  0.10631756     0.37400
C646        C  0.26914739  0.24310237  0.12900341     0.37300
N647        N  0.15424160  0.18528662  0.10003629    -0.42900
N648        N  0.28863924  0.25348773  0.13330253    -0.42900
C649        C  0.24290745  0.13842158  0.19400010     0.00700
C650        C  0.23508527  0.11557158  0.20111030    -0.11200
C651        C  0.23282543  0.10836764  0.23212005     0.02900
C652        C  0.23847657  0.12419246  0.25658940     0.00600
C653        C  0.24372186  0.14627928  0.24946851    -0.11100
C654        C  0.24597308  0.15348493  0.21858633     0.02800
H655        H  0.23186258  0.10360931  0.18249741     0.15800
H656        H  0.24757973  0.15847104  0.26800381     0.15800
C657        C  0.25179338  0.17658866  0.21284528     0.37400
C658        C  0.22498620  0.08475886  0.23826488     0.37300
N659        N  0.25640283  0.19506870  0.20816630    -0.42900
N660        N  0.21857286  0.06583276  0.24338503    -0.42900
C661        C  0.24911939  0.12897776  0.44340482     0.00700
C662        C  0.24078406  0.14322746  0.45072878    -0.11200
C663        C  0.23903858  0.14872374  0.48171245     0.02900
C664        C  0.24715662  0.14026287  0.00578454     0.00600
C665        C  0.25544466  0.12600349  0.99883917    -0.11100
C666        C  0.25447400  0.11908415  0.46799457     0.02800
H667        H  0.23637953  0.15074682  0.43218568     0.15800
H668        H  0.26116516  0.11976960  0.01751177     0.15800
C669        C  0.26256374  0.10378367  0.46254644     0.37400
C670        C  0.23089255  0.16389198  0.48779328     0.37300
N671        N  0.26914077  0.09158156  0.45842089    -0.42900
N672        N  0.22446739  0.17521348  0.99117772    -0.42900
C673        C  0.47041079  0.23523888  0.14238827     0.00700
C674        C  0.47297575  0.22290850  0.16618994    -0.11200
C675        C  0.47325974  0.22877361  0.19748848     0.02900
C676        C  0.47046681  0.24707128  0.20544202     0.00600
C677        C  0.47020576  0.26074126  0.18153637    -0.11100
C678        C  0.47042705  0.25517676  0.15021525     0.02800
H679        H  0.47347122  0.20782777  0.16042720     0.15800
H680        H  0.46862032  0.27519014  0.18736454     0.15800
C681        C  0.46861022  0.26909339  0.12690662     0.37400
C682        C  0.47438227  0.21447855  0.22084361     0.37300
N683        N  0.46718434  0.28027370  0.10824157    -0.42900
N684        N  0.47531112  0.20300192  0.23951329    -0.42900
C685        C  0.46088155  0.23979638  0.39118913     0.00700
C686        C  0.46911303  0.25664669  0.41429525    -0.11200
C687        C  0.46756062  0.25099657  0.44580703     0.02900
C688        C  0.45746353  0.22791536  0.45487968     0.00600
C689        C  0.44986882  0.21111583  0.43155022    -0.11100
C690        C  0.45137218  0.21680166  0.40002610     0.02800
H691        H  0.47620492  0.27432785  0.40773469     0.15800
H692        H  0.44203465  0.19330754  0.43794356     0.15800
C693        C  0.44121308  0.19852156  0.37756134     0.37400
C694        C  0.47545203  0.26922602  0.46816696     0.37300
N695        N  0.43290170  0.18390909  0.35954921    -0.42900
N696        N  0.48173101  0.28387111  0.48604472    -0.42900
C697        C  0.33184812  0.17962222  0.08410526     0.00700
C698        C  0.34945020  0.20133548  0.07422648    -0.11200
C699        C  0.37124936  0.20568481  0.06626709     0.02900
C700        C  0.37615194  0.18816397  0.06883171     0.00600
C701        C  0.35848643  0.16640089  0.07845408    -0.11100
C702        C  0.33653061  0.16190726  0.08566173     0.02800
H703        H  0.34610570  0.21499179  0.07215755     0.15800
H704        H  0.36176719  0.15268952  0.08028676     0.15800
C705        C  0.31920192  0.13877804  0.09408191     0.37400
C706        C  0.38793698  0.22824344  0.05493222     0.37300
N707        N  0.30525151  0.12020498  0.10053989    -0.42900
N708        N  0.40121432  0.24629209  0.04566517    -0.42900
C709        C  0.84034179  0.04319378  0.11477272     0.00700
C710        C  0.85269326  0.03217897  0.11429872    -0.11200
C711        C  0.84214094  0.00884556  0.12074658     0.02900
C712        C  0.81845578  0.99568206  0.12808899     0.00600
C713        C  0.80598438  0.00659431  0.12811192    -0.11100
C714        C  0.81660322  0.03002286  0.12165683     0.02800
H715        H  0.87086598  0.04184941  0.10889683     0.15800
H716        H  0.78781655  0.99683344  0.13350699     0.15800
C717        C  0.80263764  0.03995868  0.12272224     0.37400
C718        C  0.85622335  0.99904125  0.11894923     0.37300
N719        N  0.79140949  0.04788790  0.12363013    -0.42900
N720        N  0.86766882  0.99137183  0.11736909    -0.42900
C721        C  0.66483143  0.83423889  0.17178021     0.00700
C722        C  0.68067438  0.82827481  0.16257930    -0.11200
C723        C  0.70376147  0.84490814  0.15725911     0.02900
C724        C  0.71156814  0.86839886  0.16074718     0.00600
C725        C  0.69581424  0.87430418  0.17076640    -0.11100
C726        C  0.67279412  0.85761848  0.17656850     0.02800
H727        H  0.67498070  0.81045831  0.15910834     0.15800
H728        H  0.70150069  0.89210659  0.17433421     0.15800
C729        C  0.65800337  0.86516852  0.18799524     0.37400
C730        C  0.71874573  0.83701589  0.14817821     0.37300
N731        N  0.64623535  0.87127313  0.19732110    -0.42900
N732        N  0.73049686  0.83034476  0.14109438    -0.42900
C733        C  0.57555368  0.80041614  0.02037470     0.00700
C734        C  0.57456992  0.78007835  0.02731829    -0.11200
C735        C  0.57402701  0.77351898  0.05825621     0.02900
C736        C  0.57396093  0.78721111  0.08288716     0.00600
C737        C  0.57268294  0.80635182  0.07574610    -0.11100
C738        C  0.57366699  0.81312854  0.04485925     0.02800
H739        H  0.57571872  0.77006771  0.00865538     0.15800
H740        H  0.57234892  0.81687376  0.09432879     0.15800
C741        C  0.57322904  0.83350686  0.03885313     0.37400
C742        C  0.57429861  0.75305419  0.06407200     0.37300
N743        N  0.57290256  0.84980505  0.03379187    -0.42900
N744        N  0.57462026  0.73673086  0.06892877    -0.42900
C745        C  0.57716234  0.80652399  0.33331871     0.00700
C746        C  0.57990851  0.82191910  0.30983099    -0.11200
C747        C  0.57884444  0.81620529  0.27831498     0.02900
C748        C  0.57567600  0.79493156  0.26978836     0.00600
C749        C  0.57139729  0.77899270  0.29321966    -0.11100
C750        C  0.57188117  0.78446089  0.32468934     0.02800
H751        H  0.58355463  0.83877470  0.31609126     0.15800
H752        H  0.56853151  0.76241805  0.28694073     0.15800
C753        C  0.56843455  0.76756718  0.34739597     0.37400
C754        C  0.58234878  0.83297991  0.25538044     0.37300
N755        N  0.56561390  0.75394152  0.36548489    -0.42900
N756        N  0.58498813  0.84635674  0.23698465    -0.42900
C757        C  0.79463303  0.89226460  0.49007548     0.00700
C758        C  0.78647927  0.87594186  0.01336163    -0.11200
C759        C  0.78681267  0.88149359  0.04477886     0.02900
C760        C  0.79537940  0.90431150  0.05343363     0.00600
C761        C  0.80468815  0.92133124  0.03046042    -0.11100
C762        C  0.80486849  0.91588778  0.99904540     0.02800
H763        H  0.77882662  0.85767991  0.50733690     0.15800
H764        H  0.81146233  0.93895525  0.03706856     0.15800
C765        C  0.81451688  0.93375876  0.47666473     0.37400
C766        C  0.77671458  0.86322599  0.06732647     0.37300
N767        N  0.82275636  0.94861068  0.45891436    -0.42900
N768        N  0.76856456  0.84845861  0.08520275    -0.42900
C769        C  0.80189548  0.91386404  0.23953224     0.00700
C770        C  0.80040540  0.89312290  0.24541911    -0.11200
C771        C  0.79887170  0.88532107  0.27585330     0.02900
C772        C  0.79870662  0.89835619  0.30131374     0.00600
C773        C  0.80232884  0.92005472  0.29550080    -0.11100
C774        C  0.80394350  0.92788499  0.26498174     0.02800
H775        H  0.79925904  0.88236081  0.22615995     0.15800
H776        H  0.80290007  0.93054158  0.31477323     0.15800
C777        C  0.80780274  0.95039794  0.26049886     0.37400
C778        C  0.79741195  0.86381287  0.28011843     0.37300
N779        N  0.81112676  0.96854788  0.25705002    -0.42900
N780        N  0.79636983  0.84663333  0.28340834    -0.42900
C781        C  0.70918801  0.85238830  0.40464340     0.00700
C782        C  0.70707151  0.87070456  0.41446609    -0.11200
C783        C  0.68570912  0.86776683  0.42107701     0.02900
C784        C  0.66564314  0.84606929  0.41752275     0.00600
C785        C  0.66776343  0.82767133  0.40795628    -0.11100
C786        C  0.68919081  0.83059326  0.40155975     0.02800
H787        H  0.72227326  0.88747415  0.41757510     0.15800
H788        H  0.65255729  0.81089350  0.40497215     0.15800
C789        C  0.68994835  0.81102119  0.39121636     0.37400
C790        C  0.68519268  0.88726193  0.43237241     0.37300
N791        N  0.69044906  0.79527712  0.38293262    -0.42900
N792        N  0.68304094  0.90219738  0.94007637    -0.42900
C793        C  0.87551717  0.70823036  0.09147170     0.00700
C794        C  0.85260268  0.70247077  0.09249612    -0.11200
C795        C  0.83445708  0.67995481  0.08851816     0.02900
C796        C  0.83899835  0.66242581  0.08346687     0.00600
C797        C  0.86189343  0.66813747  0.08276722    -0.11100
C798        C  0.88004889  0.69068608  0.08646492     0.02800
H799        H  0.84872668  0.71566943  0.09621851     0.15800
H800        H  0.86575951  0.65495036  0.07883893     0.15800
C801        C  0.90302697  0.69511020  0.08474297     0.37400
C802        C  0.81147220  0.67553002  0.09012107     0.37300
N803        N  0.92140351  0.69855878  0.08320434    -0.42900
N804        N  0.79310126  0.67211084  0.09145469    -0.42900
C805        C  0.79387488  0.57171786  0.16001648     0.00700
C806        C  0.81446127  0.57287418  0.16595001    -0.11200
C807        C  0.82217172  0.57463699  0.19633808     0.02900
C808        C  0.80923987  0.57537585  0.22168205     0.00600
C809        C  0.78760020  0.57193841  0.21603575    -0.11100
C810        C  0.77981679  0.57006297  0.18552300     0.02800
H811        H  0.82523273  0.57364821  0.14673500     0.15800
H812        H  0.77723485  0.57184464  0.23533656     0.15800
C813        C  0.75742265  0.56656185  0.18106535     0.37400
C814        C  0.84351035  0.57573696  0.20081240     0.37300
N815        N  0.73939549  0.56356274  0.17747414    -0.42900
N816        N  0.86052398  0.57645856  0.20438535    -0.42900
C817        C  0.82331050  0.58772403  0.41109006     0.00700
C818        C  0.80541662  0.56737991  0.42436135    -0.11200
C819        C  0.79901731  0.56645964  0.45580009     0.02900
C820        C  0.81057898  0.58618713  0.47450202     0.00600
C821        C  0.82857014  0.60637335  0.46129945    -0.11100
C822        C  0.83497969  0.60736480  0.43009662     0.02800
H823        H  0.79615649  0.55227738  0.41003222     0.15800
H824        H  0.83734826  0.62171994  0.47530655     0.15800
C825        C  0.85251867  0.62930531  0.41784172     0.37400
C826        C  0.77950318  0.54562304  0.46763537     0.37300
N827        N  0.86644749  0.64693742  0.40807457    -0.42900
N828        N  0.76373933  0.52899524  0.47710409    -0.42900
C829        C  0.81162835  0.83009282  0.38041973     0.00700
C830        C  0.80067648  0.80643207  0.38498160    -0.11200
C831        C  0.81209204  0.79489807  0.37849908     0.02900
C832        C  0.83469393  0.80705675  0.36620282     0.00600
C833        C  0.84533436  0.83065265  0.36122280    -0.11100
C834        C  0.83423257  0.84220141  0.36837870     0.02800
H835        H  0.78337191  0.79702516  0.39437052     0.15800
H836        H  0.86263097  0.84034790  0.35184594     0.15800
C837        C  0.84646262  0.86649031  0.36244418     0.37400
C838        C  0.80047726  0.77090034  0.38590679     0.37300
N839        N  0.85620044  0.88595562  0.35791664    -0.42900
N840        N  0.79120115  0.75170804  0.39214011    -0.42900
C841        C  0.90420501  0.79905514  0.25644755     0.00700
C842        C  0.88883807  0.79620466  0.23303965    -0.11200
C843        C  0.89383941  0.79517917  0.20162343     0.02900
C844        C  0.91461141  0.79701526  0.19307873     0.00600
C845        C  0.93056694  0.80124541  0.21617570    -0.11100
C846        C  0.92570529  0.80252460  0.24758399     0.02800
H847        H  0.87229723  0.79358890  0.23937588     0.15800
H848        H  0.94665832  0.80283957  0.20971731     0.15800
C849        C  0.94255093  0.80591817  0.27011781     0.37400
C850        C  0.87646990  0.79008187  0.17904536     0.37300
N851        N  0.95611683  0.80868301  0.28809826    -0.42900
N852        N  0.86245897  0.78584742  0.16103414    -0.42900
C853        C  0.90462427  0.79538350  0.44440891     0.00700
C854        C  0.88862602  0.79119631  0.46818631    -0.11200
C855        C  0.89378048  0.79272974  0.99937448     0.02900
C856        C  0.91578387  0.79771831  0.00760873     0.00600
C857        C  0.93290259  0.80381953  0.48408071    -0.11100
C858        C  0.92731554  0.80288453  0.45264995     0.02800
H859        H  0.87128843  0.78606913  0.46222928     0.15800
H860        H  0.95006656  0.80836357  0.49003106     0.15800
C861        C  0.94495948  0.80870624  0.42950417     0.37400
C862        C  0.87609667  0.78743842  0.02228517     0.37300
N863        N  0.95921875  0.81357786  0.41104347    -0.42900
N864        N  0.86179711  0.78319887  0.04042683    -0.42900
C865        C  0.86392741  0.71039313  0.33120861     0.00700
C866        C  0.84191775  0.69281863  0.32265889    -0.11200
C867        C  0.83719861  0.67084873  0.31568910     0.02900
C868        C  0.85476621  0.66595521  0.31734595     0.00600
C869        C  0.87691081  0.68371953  0.32482162    -0.11100
C870        C  0.88165916  0.70567148  0.33164534     0.02800
H871        H  0.82821126  0.69617921  0.32150783     0.15800
H872        H  0.89062943  0.68037895  0.32606460     0.15800
C873        C  0.90492661  0.72272019  0.33945161     0.37400
C874        C  0.81413288  0.65384133  0.30694734     0.37300
N875        N  0.92361704  0.73628245  0.34564990    -0.42900
N876        N  0.79562791  0.64028802  0.29993735    -0.42900
C877        C  0.21033987  0.99645278  0.37445835     0.00700
C878        C  0.19947897  0.00783917  0.38465143    -0.11200
C879        C  0.20910854  0.03108419  0.37903791     0.02900
C880        C  0.23011257  0.04357626  0.36252264     0.00600
C881        C  0.24121626  0.03230566  0.35268067    -0.11100
C882        C  0.23151840  0.00893554  0.35837567     0.02800
H883        H  0.18334600  0.99855537  0.39733086     0.15800
H884        H  0.25733642  0.04167739  0.34001064     0.15800
C885        C  0.24324255  0.99812980  0.34639574     0.37400
C886        C  0.19728424  0.04167121  0.39151143     0.37300
N887        N  0.25257168  0.98940821  0.33676438    -0.42900
N888        N  0.18784190  0.05015413  0.40158718    -0.42900
C889        C  0.19954708  0.83666314  0.41306819     0.00700
C890        C  0.21782666  0.85854611  0.40459231    -0.11200
C891        C  0.21432937  0.87646597  0.39866711     0.02900
C892        C  0.19211293  0.87272344  0.40147160     0.00600
C893        C  0.17392069  0.85090294  0.41011568    -0.11100
C894        C  0.17736509  0.83300966  0.41588189     0.02800
H895        H  0.23495386  0.86164878  0.40207313     0.15800
H896        H  0.15676773  0.84773648  0.41267717     0.15800
C897        C  0.15774507  0.81128312  0.42513070     0.37400
C898        C  0.23372435  0.89813776  0.38874830     0.37300
N899        N  0.14195347  0.79391491  0.43252769    -0.42900
N900        N  0.24932398  0.91542120  0.38065441    -0.42900
C901        C  0.04864843  0.83287666  0.12483512     0.00700
C902        C  0.03816339  0.84569925  0.12667524    -0.11200
C903        C  0.01492327  0.83599290  0.12080181     0.02900
C904        C  0.00118931  0.81260938  0.11292923     0.00600
C905        C  0.01157491  0.79964777  0.11112545    -0.11100
C906        C  0.03503486  0.80951393  0.11676062     0.02800
H907        H  0.04820009  0.86364991  0.13269968     0.15800
H908        H  0.00137748  0.78171682  0.10506272     0.15800
C909        C  0.04451415  0.79523117  0.11360765     0.37400
C910        C  0.00588084  0.85070060  0.12347621     0.37300
N911        N  0.05196320  0.78365491  0.11092444    -0.42900
N912        N  0.99880273  0.86262345  0.12562330    -0.42900
C913        C  0.14716768  0.91615749  0.48270295     0.00700
C914        C  0.12683551  0.89562091  0.48996960    -0.11200
C915        C  0.11997156  0.88732946  0.02097440     0.02900
C916        C  0.13420645  0.90085422  0.04550899     0.00600
C917        C  0.15313476  0.92260627  0.03871507    -0.11100
C918        C  0.15935968  0.92993242  0.00785147     0.02800
H919        H  0.11625471  0.88445828  0.47146778     0.15800
H920        H  0.16378619  0.93342488  0.05741599     0.15800
C921        C  0.18003262  0.95330156  0.50128705     0.37400
C922        C  0.09901766  0.86571549  0.02657196     0.37300
N923        N  0.19574956  0.97138679  0.49667170    -0.42900
N924        N  0.08216596  0.84843023  0.03089084    -0.42900
C925        C  0.13143188  0.89649976  0.23298636     0.00700
C926        C  0.15210701  0.91678456  0.23942627    -0.11200
C927        C  0.15958385  0.92296398  0.26997112     0.02900
C928        C  0.14616628  0.90874886  0.29500215     0.00600
C929        C  0.12474203  0.88928983  0.28873841    -0.11100
C930        C  0.11730662  0.88305685  0.25809970     0.02800
H931        H  0.16302637  0.92739180  0.22045689     0.15800
H932        H  0.11410144  0.87846869  0.30774027     0.15800
C933        C  0.09508531  0.86284688  0.25318003     0.37400
C934        C  0.18112290  0.94404381  0.27482978     0.37300
N935        N  0.07721929  0.84671756  0.24927902    -0.42900
N936        N  0.19835439  0.96094611  0.27873046    -0.42900
C937        C  0.24284923  0.79614019  0.02023457     0.00700
C938        C  0.22857984  0.78021522  0.04290611    -0.11200
C939        C  0.23405667  0.78389702  0.07441224     0.02900
C940        C  0.25404366  0.80421844  0.08388012     0.00600
C941        C  0.26896545  0.81952572  0.06092959    -0.11100
C942        C  0.26364675  0.81555118  0.02931536     0.02800
H943        H  0.21270580  0.76503915  0.03601636     0.15800
H944        H  0.28445262  0.83511819  0.06775048     0.15800
C945        C  0.27899331  0.83240514  0.00693876     0.37400
C946        C  0.21805233  0.76715114  0.09641724     0.37300
N947        N  0.29123925  0.84584688  0.98889165    -0.42900
N948        N  0.20522122  0.75369423  0.11400738    -0.42900
C949        C  0.23957885  0.78385533  0.33362744     0.00700
C950        C  0.26064346  0.80309189  0.32487096    -0.11200
C951        C  0.26593490  0.80921911  0.29360324     0.02900
C952        C  0.24978037  0.79626047  0.27052654     0.00600
C953        C  0.23020717  0.77535187  0.27882205    -0.11100
C954        C  0.22517754  0.76888724  0.31017147     0.02800
H955        H  0.27242486  0.81419671  0.34248688     0.15800
H956        H  0.21826288  0.76467182  0.26107675     0.15800
C957        C  0.20518470  0.74693579  0.31765936     0.37400
C958        C  0.28799671  0.82901850  0.28577174     0.37300
N959        N  0.18937492  0.72921459  0.32374188    -0.42900
N960        N  0.30575129  0.84472231  0.27941692    -0.42900
C961        C  0.21030951  0.84659429  0.16640811     0.00700
C962        C  0.18774987  0.82849171  0.16129936    -0.11200
C963        C  0.17038816  0.83239694  0.15352545     0.02900
C964        C  0.17517394  0.85495478  0.15114607     0.00600
C965        C  0.19776465  0.87312795  0.15617867    -0.11100
C966        C  0.21524818  0.86920844  0.16356825     0.02800
H967        H  0.18359800  0.81100646  0.16283708     0.15800
H968        H  0.20185630  0.89058696  0.15451693     0.15800
C969        C  0.23797900  0.88877978  0.16805555     0.37400
C970        C  0.14798722  0.81278548  0.14745410     0.37300
N971        N  0.25619309  0.90449609  0.17153734    -0.42900
N972        N  0.13006073  0.79706800  0.14242882    -0.42900
C973        C  0.90815925  0.54582682  0.28496881     0.00700
C974        C  0.88441115  0.53382803  0.28052048    -0.11200
C975        C  0.87172481  0.54405454  0.28546882     0.02900
C976        C  0.88269277  0.56702199  0.29530641     0.00600
C977        C  0.90659692  0.57948803  0.29846169    -0.11100
C978        C  0.91938139  0.56913536  0.29353972     0.02800
H979        H  0.87545176  0.51610278  0.27332002     0.15800
H980        H  0.91527385  0.59722036  0.30556737     0.15800
C981        C  0.94376641  0.58279093  0.29813768     0.37400
C982        C  0.84748685  0.53047093  0.27948088     0.37300
N983        N  0.96330154  0.59390397  0.30190959    -0.42900
N984        N  0.82810070  0.51946196  0.27457676    -0.42900
C985        C  0.15000421  0.50172343  0.20592055     0.00700
C986        C  0.17277582  0.51340619  0.19523386    -0.11200
C987        C  0.18439031  0.50212135  0.18974934     0.02900
C988        C  0.17343766  0.47840967  0.19568245     0.00600
C989        C  0.15028300  0.46642055  0.20511220    -0.11100
C990        C  0.13847674  0.47779164  0.21005553     0.02800
H991        H  0.18170809  0.53163841  0.19095015     0.15800
H992        H  0.14148848  0.44819836  0.20931649     0.15800
C993        C  0.11483387  0.46454161  0.22007832     0.37400
C994        C  0.20747486  0.51554589  0.17750868     0.37300
N995        N  0.09585574  0.45390455  0.22800955    -0.42900
N996        N  0.22592112  0.52636268  0.16758596    -0.42900
C997        C  0.05196416  0.52845289  0.23945346     0.00700
C998        C  0.04783285  0.54634504  0.23712341    -0.11200
C999        C  0.02649499  0.54317458  0.24505880     0.02900
C1000       C  0.00855042  0.52160055  0.25564534     0.00600
C1001       C  0.01265047  0.50368680  0.25765670    -0.11100
C1002       C  0.03398005  0.50688032  0.24990365     0.02800
H1003       H  0.06139465  0.56303726  0.22915791     0.15800
H1004       H  0.99914573  0.48698494  0.26567659     0.15800
C1005       C  0.03688848  0.48777629  0.25394929     0.37400
C1006       C  0.02369527  0.56241065  0.24185237     0.37300
N1007       N  0.03912740  0.47242443  0.25739147    -0.42900
N1008       N  0.02159672  0.57791427  0.23922988    -0.42900
C1009       C  0.14892224  0.66446541  0.46235746     0.00700
C1010       C  0.16990648  0.67940796  0.47649821    -0.11200
C1011       C  0.18162656  0.70283916  0.47080364     0.02900
C1012       C  0.17255705  0.71179343  0.45009936     0.00600
C1013       C  0.15098833  0.69714557  0.43725044    -0.11100
C1014       C  0.13911864  0.67359129  0.44314882     0.02800
H1015       H  0.17734598  0.67273089  0.49191967     0.15800
H1016       H  0.14384024  0.70395736  0.42155307     0.15800
C1017       C  0.11764655  0.65918951  0.42775781     0.37400
C1018       C  0.20275054  0.71736507  0.48701834     0.37300
N1019       N  0.10044304  0.64769183  0.41536622    -0.42900
N1020       N  0.21961741  0.72908369  0.50003174    -0.42900
C1021       C  0.13912274  0.58521748  0.06613387     0.00700
C1022       C  0.13749220  0.59841479  0.08993956    -0.11200
C1023       C  0.13685100  0.59273349  0.12128628     0.02900
C1024       C  0.13764735  0.57338682  0.12929985     0.00600
C1025       C  0.14046579  0.56087537  0.10570660    -0.11100
C1026       C  0.14143510  0.56670627  0.07435701     0.02800
H1027       H  0.13569881  0.61266545  0.08402724     0.15800
H1028       H  0.14112775  0.54598000  0.11177301     0.15800
C1029       C  0.14306531  0.55232387  0.05124761     0.37400
C1030       C  0.13330276  0.60576590  0.14458620     0.37300
N1031       N  0.14435177  0.54078399  0.03273358    -0.42900
N1032       N  0.13034182  0.61607930  0.16334589    -0.42900
C1033       C  0.13998351  0.58150159  0.37918883     0.00700
C1034       C  0.14049390  0.56188998  0.37216737    -0.11200
C1035       C  0.14117743  0.55572356  0.34123536     0.02900
C1036       C  0.14196944  0.56970636  0.31661303     0.00600
C1037       C  0.14385201  0.59051062  0.32393599    -0.11100
C1038       C  0.14257838  0.59634729  0.35479145     0.02800
H1039       H  0.13881133  0.55054673  0.39077614     0.15800
H1040       H  0.14475714  0.60158429  0.30545161     0.15800
C1041       C  0.14328634  0.61737427  0.36068655     0.37400
C1042       C  0.14009407  0.53449313  0.33564408     0.37300
N1043       N  0.14376224  0.63417007  0.36541049    -0.42900
N1044       N  0.13909758  0.51739522  0.33137698    -0.42900
C1045       C  0.90090676  0.37786647  0.03742624     0.00700
C1046       C  0.91378753  0.36789703  0.04375010    -0.11200
C1047       C  0.90309027  0.34436576  0.04933877     0.02900
C1048       C  0.87893442  0.33045101  0.04951995     0.00600
C1049       C  0.86624792  0.34042138  0.04231885    -0.11100
C1050       C  0.87684538  0.36362880  0.03590793     0.02800
H1051       H  0.93228902  0.37850051  0.04446766     0.15800
H1052       H  0.84774068  0.32997762  0.04132459     0.15800
C1053       C  0.86234905  0.37196921  0.02703599     0.37400
C1054       C  0.91739009  0.33515870  0.05447511     0.37300
N1055       N  0.85080348  0.37854811  0.51943195    -0.42900
N1056       N  0.92898890  0.32788693  0.05823898    -0.42900
C1057       C  0.91757620  0.46184852  0.12214708     0.00700
C1058       C  0.91547397  0.48056589  0.12909024    -0.11200
C1059       C  0.91509401  0.48694738  0.15996876     0.02900
C1060       C  0.91690005  0.47450076  0.18460129     0.00600
C1061       C  0.91646667  0.45434576  0.17766494    -0.11100
C1062       C  0.91676577  0.44792931  0.14675833     0.02800
H1063       H  0.91534873  0.49095972  0.11038506     0.15800
H1064       H  0.91719135  0.44425212  0.19631041     0.15800
C1065       C  0.91622968  0.42699063  0.14088249     0.37400
C1066       C  0.91319535  0.50656193  0.16569518     0.37300
N1067       N  0.91559993  0.41012623  0.13607968    -0.42900
N1068       N  0.91159332  0.52222067  0.17039123    -0.42900
C1069       C  0.92274747  0.47728168  0.37130357     0.00700
C1070       C  0.92836040  0.49324976  0.39528619    -0.11200
C1071       C  0.92625426  0.48692809  0.42658361     0.02900
C1072       C  0.91862177  0.46412978  0.43462103     0.00600
C1073       C  0.91195186  0.44789099  0.41072258    -0.11100
C1074       C  0.91368599  0.45417847  0.37933646     0.02800
H1075       H  0.93504224  0.51099739  0.38956445     0.15800
H1076       H  0.90605958  0.43032916  0.41653720     0.15800
C1077       C  0.90728591  0.43681049  0.35594963     0.37400
C1078       C  0.93379300  0.50464991  0.44971714     0.37300
N1079       N  0.90213197  0.42291001  0.33715709    -0.42900
N1080       N  0.93990318  0.51889952  0.46818917    -0.42900
C1081       C  0.00564378  0.50214197  0.00981418     0.00700
C1082       C  0.01099635  0.52407759  0.50548278    -0.11200
C1083       C  0.03269901  0.54175796  0.49607796     0.02900
C1084       C  0.05036652  0.53737612  0.49057567     0.00600
C1085       C  0.04504765  0.51542369  0.99483388    -0.11100
C1086       C  0.02324269  0.49766641  0.00430983     0.02800
H1087       H  0.99770829  0.52787780  0.50922616     0.15800
H1088       H  0.05837461  0.51170665  0.99092165     0.15800
C1089       C  0.01968338  0.47522751  0.00841155     0.37400
C1090       C  0.03606117  0.56415700  0.49259335     0.37300
N1091       N  0.01695807  0.45729571  0.01168329    -0.42900
N1092       N  0.03855805  0.58203554  0.48993844    -0.42900
C1093       C  0.33262135  0.47307906  0.44357276     0.00700
C1094       C  0.34135924  0.46178192  0.46001069    -0.11200
C1095       C  0.36471503  0.47288203  0.46704683     0.02900
C1096       C  0.37963954  0.49581308  0.45786019     0.00600
C1097       C  0.37109171  0.50644980  0.43970437    -0.11100
C1098       C  0.34800583  0.49533202  0.43221780     0.02800
H1099       H  0.32980364  0.44456943  0.46848530     0.15800
H1100       H  0.38253910  0.52374778  0.43139327     0.15800
C1101       C  0.34082138  0.50724628  0.41251120     0.37400
C1102       C  0.37257010  0.46068550  0.48480743     0.37300
N1103       N  0.33530751  0.51691726  0.39657168    -0.42900
N1104       N  0.37877771  0.45077225  0.49892872    -0.42900
C1105       C  0.66867613  0.54360079  0.03003258     0.00700
C1106       C  0.68001749  0.53223406  0.02205656    -0.11200
C1107       C  0.70307082  0.54156031  0.02861743     0.02900
C1108       C  0.71561518  0.56298593  0.04351753     0.00600
C1109       C  0.70459637  0.57486917  0.05046833    -0.11100
C1110       C  0.68133603  0.56538995  0.04402357     0.02800
H1111       H  0.66655027  0.50897711  0.53726449     0.15800
H1112       H  0.71401435  0.59138195  0.06172964     0.15800
C1113       C  0.67092122  0.57813251  0.05301722     0.37400
C1114       C  0.70796607  0.52128223  0.55191289     0.37300
N1115       N  0.66265768  0.58841752  0.06029978    -0.42900
N1116       N  0.71383095  0.50862803  0.55662491    -0.42900
C1117       C  0.50610698  0.52763930  0.49891000     0.00700
C1118       C  0.50047523  0.50641324  0.00849191    -0.11200
C1119       C  0.51750490  0.50173555  0.01502950     0.02900
C1120       C  0.54091568  0.51898704  0.01126062     0.00600
C1121       C  0.54657894  0.54038331  0.50257360    -0.11100
C1122       C  0.52953645  0.54512436  0.49632149     0.02800
H1123       H  0.48267760  0.49297348  0.01151959     0.15800
H1124       H  0.56438333  0.55391262  0.50000755     0.15800
C1125       C  0.53685062  0.56804783  0.48670386     0.37400
C1126       C  0.51022786  0.47910947  0.02603645     0.37300
N1127       N  0.54281146  0.58644671  0.47901483    -0.42900
N1128       N  0.50436060  0.46099008  0.03492529    -0.42900
C1129       C  0.48050579  0.32902401  0.29414654     0.00700
C1130       C  0.50404193  0.34262660  0.29994350    -0.11200
C1131       C  0.51600754  0.36632376  0.29629015     0.02900
C1132       C  0.50454357  0.37708610  0.28581536     0.00600
C1133       C  0.48083992  0.36363874  0.28114267    -0.11100
C1134       C  0.46875694  0.33989464  0.28538507     0.02800
H1135       H  0.51330909  0.33474472  0.30736058     0.15800
H1136       H  0.47168589  0.37164760  0.27377413     0.15800
C1137       C  0.44436633  0.32733019  0.28063265     0.37400
C1138       C  0.53989607  0.37902838  0.30445392     0.37300
N1139       N  0.42479731  0.31731849  0.27697746    -0.42900
N1140       N  0.55897382  0.38913539  0.31126701    -0.42900
C1141       C  0.57298673  0.46186998  0.17693382     0.00700
C1142       C  0.56098782  0.44622809  0.15299668    -0.11200
C1143       C  0.56626370  0.45250057  0.12162144     0.02900
C1144       C  0.58360187  0.47501628  0.11366984     0.00600
C1145       C  0.59664250  0.49012364  0.13755529    -0.11100
C1146       C  0.59172705  0.48372970  0.16887649     0.02800
H1147       H  0.54674094  0.42929786  0.15879512     0.15800
H1148       H  0.61033572  0.50733837  0.13175984     0.15800
C1149       C  0.60526752  0.50055640  0.19208430     0.37400
C1150       C  0.55247182  0.43600730  0.09826806     0.37300
N1151       N  0.61616822  0.51403009  0.21065659    -0.42900
N1152       N  0.54140165  0.42276383  0.07956391    -0.42900
C1153       C  0.57041034  0.46719723  0.36260652     0.00700
C1154       C  0.55667715  0.45252422  0.38670859    -0.11200
C1155       C  0.56300363  0.45776955  0.41782563     0.02900
C1156       C  0.58350736  0.47824326  0.42544246     0.00600
C1157       C  0.59762007  0.49258752  0.40115916    -0.11100
C1158       C  0.59130268  0.48720609  0.36996894     0.02800
H1159       H  0.54057018  0.43710921  0.38123198     0.15800
H1160       H  0.61329628  0.50845545  0.40658545     0.15800
C1161       C  0.60561676  0.50332794  0.34617304     0.37400
C1162       C  0.54720776  0.44263097  0.44139638     0.37300
N1163       N  0.61691224  0.51621807  0.32697305    -0.42900
N1164       N  0.53450176  0.43057321  0.46030198    -0.42900
C1165       C  0.56049980  0.70876292  0.19764615     0.00700
C1166       C  0.57031349  0.69625067  0.18801833    -0.11200
C1167       C  0.55960698  0.67287314  0.19471295     0.02900
C1168       C  0.53889069  0.66169256  0.21215135     0.00600
C1169       C  0.52963003  0.67452892  0.22273819    -0.11100
C1170       C  0.54011975  0.69773088  0.21568386     0.02800
H1171       H  0.58599171  0.70457157  0.17425782     0.15800
H1172       H  0.51392631  0.66637304  0.23644811     0.15800
C1173       C  0.52979193  0.70985356  0.22795881     0.37400
C1174       C  0.56964627  0.66068545  0.18181804     0.37300
N1175       N  0.52153566  0.71957105  0.23779661    -0.42900
N1176       N  0.57762495  0.65092130  0.17121874    -0.42900
C1177       C  0.46839250  0.57834223  0.13529988     0.00700
C1178       C  0.44669374  0.55965199  0.12814447    -0.11200
C1179       C  0.43990284  0.55424125  0.09714689     0.02900
C1180       C  0.45498132  0.56774642  0.07279295     0.00600
C1181       C  0.47547646  0.58790159  0.08023688    -0.11100
C1182       C  0.48232781  0.59323048  0.11111483     0.02800
H1183       H  0.43561963  0.54845851  0.14657928     0.15800
H1184       H  0.48700945  0.59868942  0.06184445     0.15800
C1185       C  0.50413280  0.61372334  0.11723069     0.37400
C1186       C  0.41771306  0.53434502  0.09089328     0.37300
N1187       N  0.52160410  0.63007655  0.12225305    -0.42900
N1188       N  0.39996670  0.51844799  0.08559057    -0.42900
C1189       C  0.48064008  0.57962841  0.32424628     0.00700
C1190       C  0.46269913  0.58074783  0.33839745    -0.11200
C1191       C  0.45748118  0.57569931  0.37016034     0.02900
C1192       C  0.47003758  0.56891121  0.38785453     0.00600
C1193       C  0.48804566  0.56809899  0.37374885    -0.11100
C1194       C  0.49354388  0.57347982  0.34245950     0.02800
H1195       H  0.45272181  0.58544809  0.32464378     0.15800
H1196       H  0.49764999  0.56275287  0.38720098     0.15800
C1197       C  0.51173754  0.57118816  0.32942714     0.37400
C1198       C  0.43851056  0.57642937  0.38356636     0.37300
N1199       N  0.52631307  0.56932499  0.31911753    -0.42900
N1200       N  0.42329069  0.57703281  0.39424294    -0.42900
C1201       C  0.52402111  0.50129851  0.25208573     0.00700
C1202       C  0.50357893  0.49517465  0.23701909    -0.11200
C1203       C  0.49862643  0.51172525  0.22838102     0.02900
C1204       C  0.51403789  0.53500056  0.23559346     0.00600
C1205       C  0.53451111  0.54109605  0.25041392    -0.11100
C1206       C  0.53970427  0.52469918  0.25844297     0.02800
H1207       H  0.49165486  0.47744219  0.23119576     0.15800
H1208       H  0.54650897  0.55882424  0.25619982     0.15800
C1209       C  0.56130388  0.53262988  0.27335022     0.37400
C1210       C  0.47813032  0.50437125  0.21091361     0.37300
N1211       N  0.57870056  0.53905175  0.28505519    -0.42900
N1212       N  0.46181940  0.49844910  0.19662392    -0.42900
C1213       C  0.37949635  0.89008547  0.21993223     0.00700
C1214       C  0.36617985  0.86620272  0.22212174    -0.11200
C1215       C  0.34353015  0.85393098  0.21239784     0.02900
C1216       C  0.33330895  0.86560710  0.20074313     0.00600
C1217       C  0.34641634  0.88955463  0.19916147    -0.11100
C1218       C  0.36937457  0.90183112  0.20819125     0.02800
H1219       H  0.37360942  0.85686361  0.23099617     0.15800
H1220       H  0.33886284  0.89874156  0.19017358     0.15800
C1221       C  0.38218690  0.92626510  0.20379229     0.37400
C1222       C  0.33145734  0.82935612  0.21484119     0.37300
N1223       N  0.39239600  0.94582326  0.19998675    -0.42900
N1224       N  0.32205914  0.80968400  0.21670622    -0.42900
C1225       C  0.66200744  0.14531270  0.29100334     0.00700
C1226       C  0.67212904  0.16683491  0.30520780    -0.11200
C1227       C  0.69536340  0.17920618  0.31257239     0.02900
C1228       C  0.70917832  0.17004730  0.30574591     0.00600
C1229       C  0.69885648  0.14819370  0.29237819    -0.11100
C1230       C  0.67559158  0.13586984  0.28490596     0.02800
H1231       H  0.66183394  0.17413525  0.31061345     0.15800
H1232       H  0.70913517  0.14090453  0.28685259     0.15800
C1233       C  0.66645457  0.11406267  0.26975913     0.37400
C1234       C  0.70431839  0.20120796  0.32712000     0.37300
N1235       N  0.65906342  0.09660967  0.25751655    -0.42900
N1236       N  0.71135108  0.21883793  0.33870155    -0.42900
C1237       C  0.53724999  0.03954246  0.26165578     0.00700
C1238       C  0.54004816  0.02237094  0.27388917    -0.11200
C1239       C  0.52324186  0.99928667  0.27000114     0.02900
C1240       C  0.50356258  0.99305226  0.25245624     0.00600
C1241       C  0.50063565  0.01023385  0.24061460    -0.11100
C1242       C  0.51715129  0.03329150  0.24513177     0.02800
H1243       H  0.55512190  0.02700867  0.28727951     0.15800
H1244       H  0.48554341  0.00565152  0.22730130     0.15800
C1245       C  0.51333109  0.05008581  0.23149525     0.37400
C1246       C  0.52595111  0.98251465  0.28601601     0.37300
N1247       N  0.51020230  0.06348867  0.22055791    -0.42900
N1248       N  0.52800267  0.96916206  0.29929262    -0.42900
C1249       C  0.47662263  0.16114181  0.04872347     0.00700
C1250       C  0.46489223  0.13914722  0.03575381    -0.11200
C1251       C  0.47596438  0.12715537  0.03021944     0.02900
C1252       C  0.49924261  0.13716101  0.03798650     0.00600
C1253       C  0.51057796  0.15873477  0.05215603    -0.11100
C1254       C  0.49962035  0.17068996  0.05761339     0.02800
H1255       H  0.44725241  0.13161630  0.02883187     0.15800
H1256       H  0.52827289  0.16648141  0.05896882     0.15800
C1257       C  0.51252474  0.19266016  0.07265797     0.37400
C1258       C  0.46326187  0.10517483  0.01529683     0.37300
N1259       N  0.52293283  0.21025056  0.08468270    -0.42900
N1260       N  0.45298915  0.08758243  0.00325396    -0.42900
C1261       C  0.56738037  0.12373910  0.11600426     0.00700
C1262       C  0.58958361  0.12907123  0.12265239    -0.11200
C1263       C  0.59677129  0.13102651  0.15346684     0.02900
C1264       C  0.58160588  0.12771962  0.17830637     0.00600
C1265       C  0.56008918  0.12418489  0.17152621    -0.11100
C1266       C  0.55288289  0.12216981  0.14082258     0.02800
H1267       H  0.60105084  0.13083117  0.10380670     0.15800
H1268       H  0.54836521  0.12189224  0.19030992     0.15800
C1269       C  0.53052856  0.11860742  0.13557070     0.37400
C1270       C  0.61978098  0.13647754  0.15890888     0.37300
N1271       N  0.51265627  0.11587160  0.13148760    -0.42900
N1272       N  0.63827206  0.14099178  0.16327280    -0.42900
C1273       C  0.56623931  0.12949221  0.42818554     0.00700
C1274       C  0.58667188  0.13058894  0.42046915    -0.11200
C1275       C  0.59249756  0.12969687  0.38945424     0.02900
C1276       C  0.57764636  0.12757878  0.36551630     0.00600
C1277       C  0.55848324  0.12890013  0.37300862    -0.11100
C1278       C  0.55271715  0.12992180  0.40406845     0.02800
H1279       H  0.59750265  0.13085205  0.43872173     0.15800
H1280       H  0.54739862  0.12804862  0.35470734     0.15800
C1281       C  0.53287711  0.13141751  0.41046799     0.37400
C1282       C  0.61379452  0.13093971  0.38284062     0.37300
N1283       N  0.51709001  0.13285852  0.41536005    -0.42900
N1284       N  0.63091470  0.13209007  0.37746929    -0.42900
C1285       C  0.54388820  0.89662218  0.46012429     0.00700
C1286       C  0.56565313  0.90438542  0.47205009    -0.11200
C1287       C  0.57739651  0.89333194  0.46455383     0.02900
C1288       C  0.56764779  0.87460820  0.44380166     0.00600
C1289       C  0.54618377  0.86741656  0.43116015    -0.11100
C1290       C  0.53423602  0.87803959  0.43924013     0.02800
H1291       H  0.57009905  0.91551560  0.99213984     0.15800
H1292       H  0.53846682  0.85313238  0.41517793     0.15800
C1293       C  0.51216527  0.86959576  0.42541941     0.37400
C1294       C  0.59589772  0.89787526  0.98412886     0.37300
N1295       N  0.49446519  0.86276934  0.41441301    -0.42900
N1296       N  0.61244930  0.90339727  0.99761835    -0.42900
C1297       C  0.47559786  0.90618490  0.07802395     0.00700
C1298       C  0.45589928  0.90653129  0.08587842    -0.11200
C1299       C  0.44997579  0.90717448  0.11696841     0.02900
C1300       C  0.46376871  0.90721986  0.14105058     0.00600
C1301       C  0.48228693  0.90484887  0.13333065    -0.11100
C1302       C  0.48842803  0.90454504  0.10218232     0.02800
H1303       H  0.44569933  0.90749455  0.06769173     0.15800
H1304       H  0.49274714  0.90448109  0.15163593     0.15800
C1305       C  0.50825256  0.90301347  0.09583242     0.37400
C1306       C  0.42971939  0.90796161  0.12345407     0.37300
N1307       N  0.52417853  0.90182621  0.09084793    -0.42900
N1308       N  0.41347448  0.90855609  0.12861932    -0.42900
C1309       C  0.46001831  0.90331428  0.32880524     0.00700
C1310       C  0.48152253  0.90662375  0.33498748    -0.11200
C1311       C  0.48919704  0.90893995  0.36548392     0.02900
C1312       C  0.47508567  0.90765637  0.39067109     0.00600
C1313       C  0.45273806  0.90213249  0.38464653    -0.11100
C1314       C  0.44518481  0.90014409  0.35402790     0.02800
H1315       H  0.49300314  0.90886352  0.31589170     0.15800
H1316       H  0.44158148  0.90062315  0.40378009     0.15800
C1317       C  0.42233269  0.89533176  0.34913676     0.37400
C1318       C  0.51183635  0.91305622  0.37011622     0.37300
N1319       N  0.40402115  0.89146477  0.34513884    -0.42900
N1320       N  0.52997943  0.91636331  0.37375501    -0.42900
C1321       C  0.51943336  0.99685410  0.49496903     0.00700
C1322       C  0.53936471  0.01291888  0.51051975    -0.11200
C1323       C  0.54337938  0.03449006  0.51862051     0.02900
C1324       C  0.52688629  0.03852207  0.00838670     0.00600
C1325       C  0.50578419  0.02205416  0.99580812    -0.11100
C1326       C  0.50090989  0.00013683  0.98835253     0.02800
H1327       H  0.55166202  0.00843022  0.51713947     0.15800
H1328       H  0.49304156  0.02638975  0.99130971     0.15800
C1329       C  0.47895612  0.98447639  0.97483310     0.37400
C1330       C  0.56365530  0.04947672  0.53612923     0.37300
N1331       N  0.46134514  0.97200901  0.96399381    -0.42900
N1332       N  0.57989012  0.06123709  0.55033603    -0.42900
O1333       O  0.47308252  0.90818032  0.52270260    -0.57000
C1334       C  0.48182420  0.91152334  0.92203861     0.75600
O1335       O  0.52805162  0.96588528  0.98931504    -0.58100
C1336       C  0.48631301  0.91186067  0.54521523     0.75600
C1337       C  0.52863462  0.90492055  0.97208662     0.78000
Cd1338     Cd  0.50127190  0.92419934  0.98284864     1.37500
O1339       O  0.46923776  0.90207629  0.94590292    -0.57000
O1340       O  0.50720137  0.89292764  0.97658829    -0.55800
C1341       C  0.51252543  0.97060017  0.98837923     0.78000
O1342       O  0.53813903  0.92639663  0.97500506    -0.58200
O1343       O  0.50246054  0.92680100  0.92686340    -0.56600
O1344       O  0.50733007  0.92120107  0.53839152    -0.56600
O1345       O  0.49247118  0.95398913  0.98368110    -0.55800
O1346       O  0.57199450  0.13050439  0.56001138    -0.57000
C1347       C  0.55857889  0.12385739  0.96029494     0.75600
O1348       O  0.51519644  0.06766297  0.51644063    -0.58100
C1349       C  0.55896548  0.12198939  0.58373452     0.75600
C1350       C  0.51299235  0.12980258  0.52794410     0.78000
Cd1351     Cd  0.54041233  0.10971406  0.52253403     1.37500
O1352       O  0.57207819  0.12925486  0.98300142    -0.57000
O1353       O  0.53461239  0.14138012  0.52560036    -0.55800
C1354       C  0.53134022  0.06378348  0.51656356     0.78000
O1355       O  0.50358357  0.10822412  0.52740441    -0.58200
O1356       O  0.53742959  0.11239354  0.96676431    -0.56600
O1357       O  0.53798597  0.10798074  0.57864795    -0.56600
O1358       O  0.55119353  0.08094224  0.52069608    -0.55800
O1359       O  0.57672326  0.07002718  0.76497293    -0.57000
C1360       C  0.63777646  0.13249015  0.78183662     0.75600
O1361       O  0.57734351  0.12897345  0.73336785    -0.58100
C1362       C  0.55567244  0.06341753  0.76498858     0.75600
C1363       C  0.58157831  0.12184172  0.83230588     0.78000
Cd1364     Cd  0.58998828  0.11100106  0.77104617     1.37500
O1365       O  0.62551086  0.11109239  0.77747127    -0.57000
O1366       O  0.58973986  0.10945356  0.82693390    -0.55800
C1367       C  0.58697871  0.12609026  0.70994599     0.78000
O1368       O  0.57614685  0.12894632  0.80879534    -0.58200
O1369       O  0.62791573  0.14359221  0.77930508    -0.56600
O1370       O  0.55089871  0.07863920  0.76893572    -0.56600
O1371       O  0.59931822  0.11793272  0.71533519    -0.55800
O1372       O  0.41725736  0.92294482  0.72632684    -0.57000
C1373       C  0.48595784  0.96863956  0.74491455     0.75600
O1374       O  0.46419708  0.90334187  0.77223306    -0.58100
C1375       C  0.40405653  0.90141726  0.72512601     0.75600
C1376       C  0.46058785  0.91096577  0.67308624     0.78000
Cd1377     Cd  0.45181838  0.92152865  0.73458444     1.37500
O1378       O  0.46515420  0.96222757  0.74123039    -0.57000
O1379       O  0.45377806  0.92447695  0.67852233    -0.55800
C1380       C  0.45449949  0.90644101  0.79541582     0.78000
O1381       O  0.46431876  0.90239203  0.69656927    -0.58200
O1382       O  0.49087321  0.95341847  0.74240506    -0.56600
O1383       O  0.41297600  0.88971715  0.73048188    -0.56600
O1384       O  0.44220114  0.91458662  0.78966016    -0.55800
O1385       O  0.46394304  0.57519818  0.69108621    -0.57000
C1386       C  0.48482247  0.58401355  0.79044491     0.75600
O1387       O  0.52341987  0.57400955  0.73026947    -0.58100
C1388       C  0.47659078  0.58057373  0.66684275     0.75600
C1389       C  0.52461881  0.63645725  0.71775901     0.78000
Cd1390     Cd  0.49712759  0.58801910  0.72627352     1.37500
O1391       O  0.46929254  0.57812499  0.77034491    -0.57000
O1392       O  0.50386806  0.62638799  0.72661491    -0.55800
C1393       C  0.50782676  0.55297989  0.73021421     0.78000
O1394       O  0.53312020  0.62406670  0.71442374    -0.58200
O1395       O  0.50512750  0.59316660  0.78029197    -0.56600
O1396       O  0.49752512  0.58792897  0.67089254    -0.56600
O1397       O  0.48762588  0.54839857  0.72629382    -0.55800
O1398       O  0.57310489  0.46349929  0.73287157    -0.57000
C1399       C  0.56013333  0.46266197  0.83056386     0.75600
O1400       O  0.51242335  0.46194190  0.76137739    -0.58100
C1401       C  0.56085349  0.45480187  0.70902006     0.75600
C1402       C  0.51551100  0.40143244  0.78141928     0.78000
Cd1403     Cd  0.54049724  0.44981895  0.76979887     1.37500
O1404       O  0.57266931  0.46554686  0.80693695    -0.57000
O1405       O  0.53709518  0.41361986  0.77943399    -0.55800
C1406       C  0.52779268  0.48303734  0.75970316     0.78000
O1407       O  0.50484911  0.41161175  0.77678702    -0.58200
O1408       O  0.53910413  0.45444822  0.82569027    -0.56600
O1409       O  0.53951500  0.44220617  0.71390020    -0.56600
O1410       O  0.54809472  0.48805279  0.76353073    -0.55800
O1411       O  0.58175344  0.47072437  0.55731011    -0.57000
C1412       C  0.58854630  0.48698646  0.95795073     0.75600
O1413       O  0.58083861  0.52995177  0.51578129    -0.58100
C1414       C  0.58633984  0.48291892  0.58156294     0.75600
C1415       C  0.64353893  0.52939420  0.52644351     0.78000
Cd1416     Cd  0.59497327  0.50341337  0.52054015     1.37500
O1417       O  0.58054550  0.47355423  0.98113935    -0.57000
O1418       O  0.63226804  0.50834161  0.51978878    -0.55800
C1419       C  0.55984925  0.51407584  0.51603924     0.78000
O1420       O  0.63225936  0.53920374  0.52860155    -0.58200
O1421       O  0.60112758  0.50804332  0.96403167    -0.56600
O1422       O  0.59467064  0.50402020  0.57720189    -0.56600
O1423       O  0.55577654  0.49408774  0.51967787    -0.55800
O1424       O  0.46217950  0.57223201  0.51707306    -0.57000
C1425       C  0.46321475  0.56034985  0.91983949     0.75600
O1426       O  0.46638341  0.51570257  0.99015950    -0.58100
C1427       C  0.45197075  0.55915807  0.54010318     0.75600
C1428       C  0.40374598  0.51026956  0.96704429     0.78000
Cd1429     Cd  0.45109121  0.54063661  0.98054068     1.37500
O1430       O  0.45864115  0.57023950  0.94111413    -0.57000
O1431       O  0.41338636  0.53174461  0.96826238    -0.55800
C1432       C  0.48710434  0.53202336  0.99197808     0.78000
O1433       O  0.41601758  0.50211005  0.97346046    -0.58200
O1434       O  0.46264794  0.54232806  0.92722168    -0.56600
O1435       O  0.44057115  0.53797943  0.53459747    -0.56600
O1436       O  0.49074554  0.55186267  0.98819367    -0.55800
O1437       O  0.93446151  0.41529865  0.53041384    -0.57000
C1438       C  0.98211072  0.48378368  0.51790704     0.75600
O1439       O  0.91891074  0.46761122  0.99078641    -0.58100
C1440       C  0.91283523  0.40268946  0.53250874     0.75600
C1441       C  0.92286027  0.45819657  0.58917255     0.78000
Cd1442     Cd  0.93426450  0.45089280  0.52707794     1.37500
O1443       O  0.97471360  0.46261781  0.51727972    -0.57000
O1444       O  0.93627101  0.45122187  0.58356845    -0.55800
C1445       C  0.92081873  0.45777090  0.96695649     0.78000
O1446       O  0.91480442  0.46257073  0.56575154    -0.58200
O1447       O  0.96758801  0.48912140  0.52482423    -0.56600
O1448       O  0.90183342  0.41271485  0.53156577    -0.56600
O1449       O  0.92621802  0.44314128  0.97182824    -0.55800
O1450       O  0.11747149  0.62565040  0.96426879    -0.57000
C1451       C  0.07370762  0.55619109  0.98219563     0.75600
O1452       O  0.14105337  0.57997116  0.93590672    -0.58100
C1453       C  0.13871984  0.63997539  0.96694057     0.75600
C1454       C  0.13549369  0.58890086  0.53348962     0.78000
Cd1455     Cd  0.12071831  0.59205339  0.97248706     1.37500
O1456       O  0.07950881  0.57677447  0.97831256    -0.57000
O1457       O  0.12343531  0.59737720  0.52816523    -0.55800
C1458       C  0.13413673  0.58487280  0.91176107     0.78000
O1459       O  0.14252692  0.58305667  0.50988273    -0.58200
O1460       O  0.08957028  0.55213670  0.97937387    -0.56600
O1461       O  0.15110252  0.63195573  0.97311004    -0.56600
O1462       O  0.12106395  0.59238985  0.91608678    -0.55800
O1463       O  0.14274136  0.57694456  0.68496915    -0.57000
C1464       C  0.13785902  0.56170651  0.78445494     0.75600
O1465       O  0.08115958  0.51796083  0.73066978    -0.58100
C1466       C  0.13377216  0.56436998  0.66129487     0.75600
C1467       C  0.14188697  0.51678363  0.71311700     0.78000
Cd1468     Cd  0.12273547  0.54467090  0.72253449     1.37500
O1469       O  0.14326134  0.57543330  0.76178305    -0.57000
O1470       O  0.15393403  0.53824127  0.71664755    -0.55800
C1471       C  0.07625968  0.53331053  0.73220327     0.78000
O1472       O  0.12035280  0.50782756  0.71471825    -0.58200
O1473       O  0.12704658  0.54071676  0.77774043    -0.56600
O1474       O  0.12003393  0.54331419  0.66627390    -0.56600
O1475       O  0.09274080  0.55356286  0.72778515    -0.55800
O1476       O  0.91814623  0.47091702  0.73998367    -0.57000
C1477       C  0.92835089  0.48525068  0.83849006     0.75600
O1478       O  0.98067353  0.53124938  0.76518961    -0.58100
C1479       C  0.92276355  0.48352092  0.71620178     0.75600
C1480       C  0.92064870  0.53260838  0.78181704     0.78000
Cd1481     Cd  0.93941028  0.50399348  0.77613049     1.37500
O1482       O  0.91788398  0.47280308  0.81530001    -0.57000
O1483       O  0.90881867  0.51129171  0.77714719    -0.55800
C1484       C  0.98579042  0.51606500  0.76366571     0.78000
O1485       O  0.94212005  0.54139083  0.78319830    -0.58200
O1486       O  0.94384970  0.50565974  0.83240309    -0.56600
O1487       O  0.93381514  0.50480191  0.72094261    -0.56600
O1488       O  0.96966131  0.49585695  0.76939948    -0.55800
O1489       O  0.24658980  0.79310589  0.71424495    -0.57000
C1490       C  0.25773124  0.81081018  0.61647931     0.75600
O1491       O  0.24919521  0.85523098  0.67352923    -0.58100
C1492       C  0.25235081  0.80531696  0.73859361     0.75600
C1493       C  0.30888212  0.85304745  0.68967168     0.78000
Cd1494     Cd  0.26091607  0.82690899  0.67887388     1.37500
O1495       O  0.24827297  0.79690571  0.63892405    -0.57000
O1496       O  0.29801535  0.83180127  0.68445969    -0.55800
C1497       C  0.22791598  0.84051234  0.67285964     0.78000
O1498       O  0.29772910  0.86293006  0.68740068    -0.58200
O1499       O  0.27005149  0.83168199  0.62358337    -0.56600
O1500       O  0.26034621  0.82639520  0.73480140    -0.56600
O1501       O  0.22225498  0.81999877  0.67686482    -0.55800
O1502       O  0.13667704  0.90353251  0.67732568    -0.57000
C1503       C  0.13192068  0.89296090  0.57718696     0.75600
O1504       O  0.13647340  0.84571288  0.64380873    -0.58100
C1505       C  0.12790518  0.88974257  0.70006836     0.75600
C1506       C  0.07479888  0.84657278  0.63067003     0.78000
Cd1507     Cd  0.12362570  0.87290560  0.63789397     1.37500
O1508       O  0.13710024  0.90553346  0.60113561    -0.57000
O1509       O  0.08612815  0.86785622  0.63583075    -0.55800
C1510       C  0.15766702  0.86076246  0.64491423     0.78000
O1511       O  0.08614968  0.83680257  0.63015469    -0.58200
O1512       O  0.12410734  0.87199376  0.58181033    -0.56600
O1513       O  0.11613248  0.86874325  0.69344090    -0.56600
O1514       O  0.16295148  0.88115694  0.64086502    -0.55800
O1515       O  0.24562165  0.79294766  0.88812616    -0.57000
C1516       C  0.23441925  0.79274411  0.98808092     0.75600
O1517       O  0.18918676  0.79742409  0.92028531    -0.58100
C1518       C  0.23180476  0.78218196  0.86627985     0.75600
C1519       C  0.18662084  0.73637033  0.94092283     0.78000
Cd1520     Cd  0.21516422  0.78349832  0.92735325     1.37500
O1521       O  0.24730540  0.79751000  0.96425744    -0.57000
O1522       O  0.20811359  0.74636520  0.93757991    -0.55800
C1523       C  0.20480197  0.81837315  0.91881085     0.78000
O1524       O  0.17760698  0.74809333  0.93597668    -0.58200
O1525       O  0.21342570  0.78465166  0.98329616    -0.56600
O1526       O  0.21076620  0.77135459  0.87345310    -0.56600
O1527       O  0.22507944  0.82297352  0.92169023    -0.55800
O1528       O  0.14154158  0.90680666  0.85106866    -0.57000
C1529       C  0.15505507  0.91942731  0.95063198     0.75600
O1530       O  0.20172134  0.91159072  0.89656637    -0.58100
C1531       C  0.15498771  0.91302080  0.82762904     0.75600
C1532       C  0.19826426  0.97084905  0.88004906     0.78000
Cd1533     Cd  0.17331304  0.92288601  0.88912112     1.37500
O1534       O  0.14183922  0.91035801  0.92766518    -0.57000
O1535       O  0.17680974  0.95925492  0.88461364    -0.55800
C1536       C  0.18676102  0.89037986  0.89663876     0.78000
O1537       O  0.20861303  0.96008906  0.88086135    -0.58200
O1538       O  0.17627925  0.93085417  0.94456116    -0.56600
O1539       O  0.17609547  0.92283017  0.83322817    -0.56600
O1540       O  0.16632195  0.88487375  0.89237483    -0.55800
O1541       O  0.90846717  0.80022370  0.88819705    -0.57000
C1542       C  0.89512044  0.79508418  0.78915650     0.75600
O1543       O  0.85194753  0.73752286  0.84015391    -0.58100
C1544       C  0.89577435  0.79020186  0.91175837     0.75600
C1545       C  0.84792275  0.79681899  0.86043200     0.78000
Cd1546     Cd  0.87687157  0.77911930  0.85036679     1.37500
O1547       O  0.90822741  0.80126522  0.81241614    -0.57000
O1548       O  0.86912315  0.80922885  0.85428878    -0.55800
C1549       C  0.86835306  0.73404487  0.83911001     0.78000
O1550       O  0.83948295  0.77539530  0.86050670    -0.58200
O1551       O  0.87384934  0.78351886  0.79499605    -0.56600
O1552       O  0.87513679  0.77515140  0.90638534    -0.56600
O1553       O  0.88795768  0.75113861  0.84465938    -0.55800
O1554       O  0.81667125  0.57810221  0.85730354    -0.57000
C1555       C  0.82121122  0.58305385  0.75364009     0.75600
O1556       O  0.86885990  0.64022710  0.81378078    -0.58100
C1557       C  0.83140427  0.59007815  0.87775659     0.75600
C1558       C  0.87157998  0.57912359  0.80362591     0.78000
Cd1559     Cd  0.84366427  0.59829134  0.81259597     1.37500
O1560       O  0.80941417  0.57571229  0.77863734    -0.57000
O1561       O  0.85088537  0.56773284  0.81261841    -0.55800
C1562       C  0.85256456  0.64388415  0.81364514     0.78000
O1563       O  0.88038510  0.60049697  0.80050508    -0.58200
O1564       O  0.84241357  0.59714995  0.75662790    -0.56600
O1565       O  0.85134526  0.60428371  0.86773612    -0.56600
O1566       O  0.83262563  0.62645776  0.81141586    -0.55800
O1567       O  0.96441248  0.78117651  0.60392120    -0.57000
C1568       C  0.89492585  0.73315686  0.59596486     0.75600
O1569       O  0.91480958  0.79987335  0.63726841    -0.58100
C1570       C  0.97710536  0.80258901  0.60786357     0.75600
C1571       C  0.92193969  0.79496523  0.54002427     0.78000
Cd1572     Cd  0.92848468  0.78128996  0.60056468     1.37500
O1573       O  0.91605342  0.74052008  0.59267716    -0.57000
O1574       O  0.93697665  0.79010382  0.54490065    -0.55800
C1575       C  0.91919988  0.79247818  0.66141299     0.78000
O1576       O  0.91122774  0.79560846  0.56381696    -0.58200
O1577       O  0.88997168  0.74799061  0.60217255    -0.56600
O1578       O  0.96716092  0.81368943  0.60725815    -0.56600
O1579       O  0.92784103  0.78038269  0.65711537    -0.55800
O1580       O  0.75254392  0.59312565  0.56047643    -0.57000
C1581       C  0.82149708  0.63883970  0.57903549     0.75600
O1582       O  0.79956858  0.57287010  0.60484476    -0.58100
C1583       C  0.73982180  0.57186639  0.55543457     0.75600
C1584       C  0.80362580  0.58657276  0.00646736     0.78000
Cd1585     Cd  0.78766443  0.59193142  0.56757769     1.37500
O1586       O  0.80084929  0.63264750  0.57404826    -0.57000
O1587       O  0.80558720  0.60485774  0.01611109    -0.55800
C1588       C  0.79057915  0.57642292  0.62847597     0.78000
O1589       O  0.79600632  0.57124562  0.52625832    -0.58200
O1590       O  0.82594546  0.62320117  0.57887952    -0.56600
O1591       O  0.74941050  0.56048489  0.55664860    -0.56600
O1592       O  0.77885384  0.58528417  0.62328122    -0.55800
O1593       O  0.79909065  0.89888560  0.93400967    -0.57000
C1594       C  0.79179738  0.88884868  0.83334805     0.75600
O1595       O  0.77725665  0.83239077  0.88698204    -0.58100
C1596       C  0.79066191  0.88524698  0.95694955     0.75600
C1597       C  0.73165112  0.85682718  0.89906933     0.78000
Cd1598     Cd  0.77816787  0.86858859  0.89445280     1.37500
O1599       O  0.79787589  0.90147356  0.85732767    -0.57000
O1600       O  0.74837660  0.87713805  0.89625462    -0.55800
C1601       C  0.79890131  0.84236530  0.88817581     0.78000
O1602       O  0.73634471  0.84130760  0.89819818    -0.58200
O1603       O  0.77969623  0.86758476  0.83816293    -0.56600
O1604       O  0.77752589  0.86436273  0.95036882    -0.56600
O1605       O  0.80980468  0.86343506  0.89456506    -0.55800
O1606       O  0.57281393  0.79997116  0.88931511    -0.57000
C1607       C  0.58139808  0.80963174  0.98835587     0.75600
O1608       O  0.63660759  0.85675244  0.92220738    -0.58100
C1609       C  0.58026613  0.81319432  0.86590651     0.75600
C1610       C  0.57652537  0.85931526  0.93866769     0.78000
Cd1611     Cd  0.59466476  0.83057771  0.92796988     1.37500
O1612       O  0.57336301  0.79728668  0.96428645    -0.57000
O1613       O  0.56436691  0.83866894  0.93026127    -0.55800
C1614       C  0.64093720  0.84097928  0.92157042     0.78000
O1615       O  0.59788626  0.86749619  0.94036711    -0.58200
O1616       O  0.59542351  0.83066796  0.98390006    -0.56600
O1617       O  0.59313795  0.83428607  0.87162007    -0.56600
O1618       O  0.62396282  0.82085113  0.92478354    -0.55800
O1619       O  0.59204278  0.74536886  0.68357096    -0.57000
C1620       C  0.63909708  0.81551300  0.67247612     0.75600
O1621       O  0.57126456  0.79090857  0.63819722    -0.58100
C1622       C  0.57052768  0.73262206  0.68726159     0.75600
C1623       C  0.57903811  0.78886151  0.73752025     0.78000
Cd1624     Cd  0.59109265  0.78043153  0.67666621     1.37500
O1625       O  0.63246797  0.79453327  0.67075068    -0.57000
O1626       O  0.58925343  0.77828751  0.73292964    -0.55800
C1627       C  0.57701245  0.78347420  0.61498439     0.78000
O1628       O  0.57376937  0.79560403  0.71347238    -0.58200
O1629       O  0.62353804  0.81981787  0.67682596    -0.56600
O1630       O  0.55889667  0.74181872  0.68360831    -0.56600
O1631       O  0.58788203  0.77382971  0.62089702    -0.55800
O1632       O  0.78398500  0.95833991  0.63609448    -0.57000
C1633       C  0.73484372  0.88683634  0.65356161     0.75600
O1634       O  0.79764523  0.90435821  0.60932231    -0.58100
C1635       C  0.80569374  0.97078290  0.63511418     0.75600
C1636       C  0.79712509  0.91860944  0.70715098     0.78000
Cd1637     Cd  0.78272836  0.92207181  0.64581353     1.37500
O1638       O  0.74132762  0.90783619  0.65434975    -0.57000
O1639       O  0.78709731  0.92923846  0.70197754    -0.55800
C1640       C  0.79165200  0.91022874  0.58513824     0.78000
O1641       O  0.80216345  0.91092956  0.68349576    -0.58200
O1642       O  0.75038994  0.88263727  0.64849665    -0.56600
O1643       O  0.81627900  0.96067383  0.64029660    -0.56600
O1644       O  0.78232565  0.92170249  0.58926576    -0.55800
O1645       O  0.46259899  0.23440559  0.51050049    -0.57000
C1646       C  0.46307933  0.22683266  0.61031198     0.75600
O1647       O  0.40297468  0.17836691  0.56178920    -0.58100
C1648       C  0.45588626  0.21806790  0.98940768     0.75600
C1649       C  0.46589583  0.17880330  0.54522525     0.78000
Cd1650     Cd  0.44475360  0.20491779  0.55159712     1.37500
O1651       O  0.46685694  0.23871716  0.58598281    -0.57000
O1652       O  0.47690622  0.20036376  0.54669035    -0.55800
C1653       C  0.39848022  0.19405748  0.56189966     0.78000
O1654       O  0.44426378  0.16868816  0.54823988    -0.58200
O1655       O  0.45210458  0.20540345  0.60671795    -0.56600
O1656       O  0.44044409  0.19977045  0.49535902    -0.56600
O1657       O  0.41522557  0.21400102  0.55668914    -0.55800
O1658       O  0.24341000  0.13395695  0.56145780    -0.57000
C1659       C  0.24801178  0.14542379  0.66203352     0.75600
O1660       O  0.30281739  0.19123092  0.59201557    -0.58100
C1661       C  0.24744513  0.14723989  0.53866223     0.75600
C1662       C  0.24130454  0.19188223  0.60957235     0.78000
Cd1663     Cd  0.26090992  0.16467652  0.60041332     1.37500
O1664       O  0.23822532  0.13285575  0.63860362    -0.57000
O1665       O  0.22955453  0.17051816  0.60512849    -0.55800
C1666       C  0.30712551  0.17541212  0.59124229     0.78000
O1667       O  0.26291845  0.20128404  0.60822714    -0.58200
O1668       O  0.26397203  0.16571378  0.65635214    -0.56600
O1669       O  0.25555772  0.16805546  0.54499716    -0.56600
O1670       O  0.29033249  0.15548964  0.59645588    -0.55800
O1671       O  0.26235861  0.08036864  0.84965494    -0.57000
C1672       C  0.30872859  0.14960617  0.83445067     0.75600
O1673       O  0.24221709  0.12933671  0.81270300    -0.58100
C1674       C  0.24105689  0.06761137  0.85516951     0.75600
C1675       C  0.25460524  0.12534877  0.91022924     0.78000
Cd1676     Cd  0.26144631  0.11575066  0.84703337     1.37500
O1677       O  0.30190081  0.12863268  0.83689530    -0.57000
O1678       O  0.26860372  0.11953570  0.90239492    -0.55800
C1679       C  0.24341099  0.11910015  0.78880753     0.78000
O1680       O  0.24371506  0.12745558  0.88828125    -0.58200
O1681       O  0.29362372  0.15462676  0.83832730    -0.56600
O1682       O  0.22964713  0.07722895  0.85535497    -0.56600
O1683       O  0.25126748  0.10634762  0.79275711    -0.55800
O1684       O  0.44876773  0.28925425  0.79542540    -0.57000
C1685       C  0.40277508  0.22117754  0.80699630     0.75600
O1686       O  0.47298180  0.24606956  0.76183653    -0.58100
C1687       C  0.46994291  0.30332818  0.79936414     0.75600
C1688       C  0.46182002  0.24535978  0.86087169     0.78000
Cd1689     Cd  0.45091821  0.25492155  0.80054519     1.37500
O1690       O  0.41023338  0.24229991  0.80916341    -0.57000
O1691       O  0.45819456  0.26129432  0.85638788    -0.55800
C1692       C  0.46498677  0.25044321  0.73834038     0.78000
O1693       O  0.46288764  0.23521004  0.83682201    -0.58200
O1694       O  0.41746685  0.21605907  0.80017274    -0.56600
O1695       O  0.48197171  0.29475617  0.80484740    -0.56600
O1696       O  0.45116964  0.25688798  0.74397511    -0.55800
O1697       O  0.79874818  0.24097227  0.85515250    -0.57000
C1698       C  0.79236936  0.23118092  0.75523429     0.75600
O1699       O  0.79584857  0.18227833  0.82041142    -0.58100
C1700       C  0.79023111  0.22744956  0.87816505     0.75600
C1701       C  0.73453954  0.18286945  0.81021019     0.78000
Cd1702     Cd  0.78343970  0.21013508  0.81561897     1.37500
O1703       O  0.79740926  0.24344215  0.77947572    -0.57000
O1704       O  0.74535884  0.20421241  0.81481043    -0.55800
C1705       C  0.81707496  0.19723700  0.81897285     0.78000
O1706       O  0.74648737  0.17375258  0.80902872    -0.58200
O1707       O  0.78334086  0.20997735  0.75948540    -0.56600
O1708       O  0.77721526  0.20652506  0.87180273    -0.56600
O1709       O  0.82224517  0.21749356  0.81413682    -0.55800
O1710       O  0.91020012  0.13699324  0.88726357    -0.57000
C1711       C  0.92379461  0.15269076  0.78829994     0.75600
O1712       O  0.91139623  0.19583665  0.84136132    -0.58100
C1713       C  0.91602332  0.14994737  0.91090865     0.75600
C1714       C  0.97271931  0.19360572  0.86143750     0.78000
Cd1715     Cd  0.92479660  0.16910581  0.84988879     1.37500
O1716       O  0.91395518  0.13876520  0.81067785    -0.57000
O1717       O  0.96101637  0.17241614  0.85590733    -0.55800
C1718       C  0.89027492  0.18038709  0.84123812     0.78000
O1719       O  0.96236724  0.20435859  0.85944806    -0.58200
O1720       O  0.93493747  0.17366067  0.79531304    -0.56600
O1721       O  0.92434000  0.17096422  0.90583924    -0.56600
O1722       O  0.88547957  0.16027308  0.84649222    -0.55800
O1723       O  0.80559319  0.24382547  0.52983348    -0.57000
C1724       C  0.81847581  0.25504817  0.62735576     0.75600
O1725       O  0.86489778  0.24447078  0.57340410    -0.58100
C1726       C  0.81776937  0.24760089  0.00617465     0.75600
C1727       C  0.86584200  0.30530019  0.55539530     0.78000
Cd1728     Cd  0.83781856  0.25735809  0.56660331     1.37500
O1729       O  0.80594231  0.24543489  0.60400456    -0.57000
O1730       O  0.84423934  0.29451099  0.55761719    -0.55800
C1731       C  0.84961696  0.22343610  0.57556664     0.78000
O1732       O  0.87511826  0.29374837  0.55955420    -0.58200
O1733       O  0.83978532  0.26704253  0.62195698    -0.56600
O1734       O  0.83881827  0.25427920  0.51049338    -0.56600
O1735       O  0.82919055  0.21842197  0.57288885    -0.55800
O1736       O  0.91053570  0.12841442  0.56075920    -0.57000
C1737       C  0.90090262  0.12806985  0.66063814     0.75600
O1738       O  0.85280112  0.13020041  0.59782532    -0.58100
C1739       C  0.89650896  0.12134763  0.53848350     0.75600
C1740       C  0.85339768  0.06849011  0.60895231     0.78000
Cd1741     Cd  0.88012601  0.11719269  0.60099190     1.37500
O1742       O  0.91329078  0.13488006  0.63617733    -0.57000
O1743       O  0.87494024  0.07954677  0.60504298    -0.55800
C1744       C  0.86809010  0.15129151  0.59641951     0.78000
O1745       O  0.84395135  0.08011728  0.60811365    -0.58200
O1746       O  0.87949203  0.11611552  0.65715364    -0.56600
O1747       O  0.87552421  0.11143458  0.54571765    -0.56600
O1748       O  0.88852515  0.15620985  0.59824029    -0.55800
O1749       O  0.24420285  0.46482610  0.72955578    -0.57000
C1750       C  0.23317868  0.45972913  0.62963995     0.75600
O1751       O  0.18725558  0.40350443  0.68286329    -0.58100
C1752       C  0.23056612  0.45474968  0.75230599     0.75600
C1753       C  0.18851865  0.46727363  0.69497010     0.78000
Cd1754     Cd  0.21383511  0.44492967  0.69027750     1.37500
O1755       O  0.24618280  0.46424757  0.65274485    -0.57000
O1756       O  0.21011476  0.47762385  0.69359411    -0.55800
C1757       C  0.20281956  0.39878055  0.68218553     0.78000
O1758       O  0.17788320  0.44559064  0.69372616    -0.58200
O1759       O  0.21194605  0.44966741  0.63534408    -0.56600
O1760       O  0.21000866  0.44012125  0.74579443    -0.56600
O1761       O  0.22299507  0.41533660  0.68633772    -0.55800
O1762       O  0.13672330  0.23876147  0.68768085    -0.57000
C1763       C  0.14917419  0.24996232  0.58684821     0.75600
O1764       O  0.19576549  0.30121663  0.65448833    -0.58100
C1765       C  0.15021997  0.24390855  0.71035710     0.75600
C1766       C  0.19312849  0.23818554  0.63856971     0.78000
Cd1767     Cd  0.16779262  0.25969437  0.64841504     1.37500
O1768       O  0.13601407  0.24089375  0.61033964    -0.57000
O1769       O  0.17155556  0.22730968  0.64116892    -0.55800
C1770       C  0.18046570  0.30621494  0.65698679     0.78000
O1771       O  0.20347460  0.25975217  0.64136320    -0.58200
O1772       O  0.17008016  0.26386220  0.59240224    -0.56600
O1773       O  0.17137108  0.25527217  0.70378399    -0.56600
O1774       O  0.16000791  0.28976432  0.65474181    -0.55800
O1775       O  0.29346844  0.44100941  0.94497962    -0.57000
C1776       C  0.22265938  0.39620513  0.93366064     0.75600
O1777       O  0.25023310  0.46518147  0.97880465    -0.58100
C1778       C  0.30716171  0.46239833  0.94212111     0.75600
C1779       C  0.25464950  0.45718179  0.87990111     0.78000
Cd1780     Cd  0.25880544  0.44311432  0.94066340     1.37500
O1781       O  0.24325029  0.40169580  0.93692017    -0.57000
O1782       O  0.26598376  0.44791592  0.88519435    -0.55800
C1783       C  0.25382519  0.45645407  0.00222534     0.78000
O1784       O  0.24587431  0.46122118  0.90333844    -0.58200
O1785       O  0.21895259  0.41230093  0.93536400    -0.56600
O1786       O  0.29823802  0.47423612  0.93815363    -0.56600
O1787       O  0.25878841  0.44152535  0.99673352    -0.55800
O1788       O  0.08299195  0.25898138  0.89230043    -0.57000
C1789       C  0.15201561  0.30244827  0.90711847     0.75600
O1790       O  0.12659209  0.23625044  0.93891322    -0.58100
C1791       C  0.06877730  0.23761924  0.89206404     0.75600
C1792       C  0.12486810  0.24309552  0.83816138     0.78000
Cd1793     Cd  0.11654962  0.25553710  0.89912282     1.37500
O1794       O  0.13149107  0.29680622  0.90282529    -0.57000
O1795       O  0.11728648  0.25606288  0.84275730    -0.55800
C1796       C  0.11913614  0.24246099  0.96166300     0.78000
O1797       O  0.12929604  0.23562034  0.86222139    -0.58200
O1798       O  0.15600337  0.28654531  0.90548136    -0.56600
O1799       O  0.07686944  0.22505482  0.89652633    -0.56600
O1800       O  0.10897931  0.25267708  0.95485330    -0.55800
C1801       C  0.17026734  0.32630361  0.91418023     0.00700
C1802       C  0.16643710  0.34396353  0.90786051    -0.11200
C1803       C  0.18301254  0.36674314  0.91427208     0.02900
C1804       C  0.20404154  0.37229184  0.92760797     0.00600
C1805       C  0.20773929  0.35458980  0.93429915    -0.11100
C1806       C  0.19117041  0.33181714  0.92786614     0.02800
H1807       H  0.15050725  0.34002241  0.89741704     0.15800
H1808       H  0.22366332  0.35852306  0.94475159     0.15800
C1809       C  0.19600902  0.31454876  0.93636696     0.37400
C1810       C  0.17813091  0.38396749  0.90571759     0.37300
N1811       N  0.19986626  0.30070701  0.94320581    -0.42900
N1812       N  0.17413041  0.39767721  0.89870719    -0.42900
C1813       C  0.14083262  0.24493555  0.55441215     0.00700
C1814       C  0.11865401  0.23978568  0.54802920    -0.11200
C1815       C  0.11143436  0.24180708  0.01982719     0.02900
C1816       C  0.12376355  0.23986290  0.99454110     0.00600
C1817       C  0.14739418  0.24346608  0.49879657    -0.11100
C1818       C  0.15507070  0.24621013  0.52938070     0.02800
H1819       H  0.10746195  0.23847422  0.56699312     0.15800
H1820       H  0.15274956  0.23719343  0.98183086     0.15800
C1821       C  0.17782184  0.25068040  0.53422256     0.37400
C1822       C  0.09113218  0.24265758  0.01531864     0.37300
N1823       N  0.19609015  0.25437401  0.53805598    -0.42900
N1824       N  0.07494211  0.24350477  0.01183179    -0.42900
C1825       C  0.14191316  0.23849338  0.74314470     0.00700
C1826       C  0.12054715  0.23540847  0.75076424    -0.11200
C1827       C  0.11397994  0.23516407  0.78177864     0.02900
C1828       C  0.12886316  0.23793472  0.80601801     0.00600
C1829       C  0.14913761  0.23860004  0.79861614    -0.11100
C1830       C  0.15579752  0.23895089  0.76750197     0.02800
H1831       H  0.10942409  0.23446165  0.73246131     0.15800
H1832       H  0.16045554  0.24022281  0.81706929     0.15800
C1833       C  0.17713945  0.24021338  0.76134002     0.37400
C1834       C  0.09194622  0.23234933  0.78810819     0.37300
N1835       N  0.19421222  0.24116073  0.75641538    -0.42900
N1836       N  0.07425151  0.22999269  0.79318761    -0.42900
C1837       C  0.24180137  0.46411076  0.59721587     0.00700
C1838       C  0.25994297  0.46117055  0.58936441    -0.11200
C1839       C  0.26500724  0.45936312  0.55827384     0.02900
C1840       C  0.25206072  0.46099767  0.53434107     0.00600
C1841       C  0.23542979  0.46618281  0.54213063    -0.11100
C1842       C  0.23006163  0.46753645  0.57326604     0.02800
H1843       H  0.26919047  0.45871226  0.60754926     0.15800
H1844       H  0.22567150  0.46785657  0.52393611     0.15800
C1845       C  0.21200175  0.47181654  0.57996763     0.37400
C1846       C  0.28324940  0.45532591  0.55167724     0.37300
N1847       N  0.19750488  0.47520528  0.58533916    -0.42900
N1848       N  0.29783982  0.45205510  0.54641488    -0.42900
C1849       C  0.23801485  0.45926399  0.78501873     0.00700
C1850       C  0.26015368  0.46476504  0.79235809    -0.11200
C1851       C  0.26656620  0.46586212  0.82336969     0.02900
C1852       C  0.25063921  0.46137742  0.84764074     0.00600
C1853       C  0.22921711  0.45785690  0.84031800    -0.11100
C1854       C  0.22281432  0.45679405  0.80935896     0.02800
H1855       H  0.27216699  0.46729973  0.77387616     0.15800
H1856       H  0.21698417  0.45476978  0.85875520     0.15800
C1857       C  0.20054327  0.45317588  0.80319834     0.37400
C1858       C  0.28959446  0.47168672  0.82968827     0.37300
N1859       N  0.18277981  0.45038489  0.79802436    -0.42900
N1860       N  0.30808905  0.47652212  0.83483040    -0.42900
C1861       C  0.18605364  0.32992037  0.66282199     0.00700
C1862       C  0.20867112  0.34697108  0.66965143    -0.11200
C1863       C  0.21465216  0.36940299  0.67619054     0.02900
C1864       C  0.19767922  0.37522046  0.67622246     0.00600
C1865       C  0.17511466  0.35815454  0.66931421    -0.11100
C1866       C  0.16919538  0.33583794  0.66250476     0.02800
H1867       H  0.22182072  0.34278429  0.67002269     0.15800
H1868       H  0.16191739  0.36227201  0.66884820     0.15800
C1869       C  0.14566147  0.31964113  0.65477218     0.37400
C1870       C  0.23838655  0.38586633  0.68257956     0.37300
N1871       N  0.12680419  0.30671325  0.64851554    -0.42900
N1872       N  0.25746843  0.39890287  0.68754736    -0.42900
C1873       C  0.86286995  0.16951879  0.59213550     0.00700
C1874       C  0.88117802  0.19207454  0.58712175    -0.11200
C1875       C  0.87745809  0.20989966  0.58181501     0.02900
C1876       C  0.85489034  0.20538914  0.58121632     0.00600
C1877       C  0.83659732  0.18287845  0.58653805    -0.11100
C1878       C  0.84033558  0.16509428  0.59210955     0.02800
H1879       H  0.89862224  0.19589059  0.58709745     0.15800
H1880       H  0.81915438  0.17906579  0.58657445     0.15800
C1881       C  0.82065755  0.14262844  0.59815963     0.37400
C1882       C  0.89721879  0.23251966  0.57691469     0.37300
N1883       N  0.80490394  0.12463295  0.60313712    -0.42900
N1884       N  0.91307146  0.25064544  0.57306829    -0.42900
C1885       C  0.99713521  0.20494251  0.87026364     0.00700
C1886       C  0.01116412  0.22884207  0.86877958    -0.11200
C1887       C  0.03442690  0.24011564  0.87628903     0.02900
C1888       C  0.04401930  0.22736632  0.88605638     0.00600
C1889       C  0.02974838  0.20357173  0.88848359    -0.11100
C1890       C  0.00672352  0.19231459  0.88057921     0.02800
H1891       H  0.00407335  0.23877338  0.86106417     0.15800
H1892       H  0.03667192  0.19347337  0.89614788     0.15800
C1893       C  0.99361778  0.16773930  0.88347163     0.37400
C1894       C  0.04795392  0.26461267  0.87275149     0.37300
N1895       N  0.98337409  0.14805482  0.88573220    -0.42900
N1896       N  0.05866251  0.28424031  0.86972489    -0.42900
C1897       C  0.91047157  0.13420966  0.69203713     0.00700
C1898       C  0.90287466  0.11698071  0.71453467    -0.11200
C1899       C  0.90849279  0.12234842  0.74586403     0.02900
C1900       C  0.92135808  0.14547225  0.75522361     0.00600
C1901       C  0.93009179  0.16257718  0.73217966    -0.11100
C1902       C  0.92474944  0.15715310  0.70087900     0.02800
H1903       H  0.89205686  0.09926585  0.70766895     0.15800
H1904       H  0.94014891  0.18042245  0.73870382     0.15800
C1905       C  0.93232366  0.17553296  0.67878237     0.37400
C1906       C  0.90052448  0.10377089  0.76768645     0.37300
N1907       N  0.93825736  0.19025511  0.66111758    -0.42900
N1908       N  0.89426407  0.08881481  0.78504438    -0.42900
C1909       C  0.91309877  0.14121690  0.94304339     0.00700
C1910       C  0.89434818  0.11947908  0.95031509    -0.11200
C1911       C  0.88926637  0.11192330  0.98117748     0.02900
C1912       C  0.90393565  0.12594225  0.50552866     0.00600
C1913       C  0.92381929  0.14676586  0.49785376    -0.11100
C1914       C  0.92811703  0.15470137  0.96701708     0.02800
H1915       H  0.88301079  0.10878824  0.93204401     0.15800
H1916       H  0.93491665  0.15772316  0.51614087     0.15800
C1917       C  0.94857113  0.17663413  0.96085076     0.37400
C1918       C  0.86980399  0.08951703  0.48776124     0.37300
N1919       N  0.96496242  0.19421240  0.95602310    -0.42900
N1920       N  0.85381842  0.07172173  0.49295954    -0.42900
C1921       C  0.79701244  0.24046523  0.72316001     0.00700
C1922       C  0.78234846  0.22641408  0.69963869    -0.11200
C1923       C  0.78810468  0.23168462  0.66822579     0.02900
C1924       C  0.80917362  0.25142134  0.65967202     0.00600
C1925       C  0.82299448  0.26645475  0.68324565    -0.11100
C1926       C  0.81701384  0.26125367  0.71477317     0.02800
H1927       H  0.76672802  0.21057286  0.70584498     0.15800
H1928       H  0.83906607  0.28183535  0.67711008     0.15800
C1929       C  0.83256154  0.27664091  0.73789428     0.37400
C1930       C  0.77283373  0.21543766  0.64559618     0.37300
N1931       N  0.84499898  0.28897927  0.75644852    -0.42900
N1932       N  0.76058165  0.20233812  0.62754534    -0.42900
C1933       C  0.79594337  0.23504103  0.91095595     0.00700
C1934       C  0.78087886  0.22104185  0.93477949    -0.11200
C1935       C  0.78706373  0.22536012  0.96612713     0.02900
C1936       C  0.80892805  0.24374754  0.97410394     0.00600
C1937       C  0.82358832  0.25827024  0.95047605    -0.11100
C1938       C  0.81727771  0.25427334  0.91923671     0.02800
H1939       H  0.76443210  0.20623767  0.92885041     0.15800
H1940       H  0.84033574  0.27263153  0.95640992     0.15800
C1941       C  0.83371211  0.26946415  0.89626572     0.37400
C1942       C  0.77124508  0.20984929  0.98937176     0.37300
N1943       N  0.84697565  0.28173746  0.87801586    -0.42900
N1944       N  0.75857494  0.19743938  0.00803367    -0.42900
C1945       C  0.83524531  0.19194084  0.82347604     0.00700
C1946       C  0.85789562  0.20849650  0.81491447    -0.11200
C1947       C  0.87607776  0.20536826  0.82070596     0.02900
C1948       C  0.87183954  0.18508908  0.83510283     0.00600
C1949       C  0.84913586  0.16838923  0.84328044    -0.11100
C1950       C  0.83100102  0.17170162  0.83799540     0.02800
H1951       H  0.86153886  0.22418307  0.80385098     0.15800
H1952       H  0.84552113  0.15278050  0.85455273     0.15800
C1953       C  0.80851441  0.15454919  0.84930405     0.37400
C1954       C  0.89879648  0.22327049  0.81132252     0.37300
N1955       N  0.79054997  0.14088744  0.85864601    -0.42900
N1956       N  0.91697762  0.23772108  0.80385475    -0.42900
C1957       C  0.37845281  0.20314636  0.81306070     0.00700
C1958       C  0.37292610  0.18054502  0.81712875    -0.11200
C1959       C  0.35054048  0.16285220  0.82407624     0.02900
C1960       C  0.33291440  0.16755114  0.82722211     0.00600
C1961       C  0.33843458  0.19015148  0.82300498    -0.11100
C1962       C  0.36081927  0.20782950  0.81595479     0.02800
H1963       H  0.38623388  0.17661263  0.81520981     0.15800
H1964       H  0.32516454  0.19412510  0.82505482     0.15800
C1965       C  0.36493593  0.23043975  0.81134092     0.37400
C1966       C  0.34640495  0.14016611  0.82787962     0.37300
N1967       N  0.36816686  0.24852928  0.80759305    -0.42900
N1968       N  0.34314259  0.12199930  0.83083933    -0.42900
C1969       C  0.20548134  0.22624772  0.63200693     0.00700
C1970       C  0.22888983  0.23917105  0.62413843    -0.11200
C1971       C  0.24108531  0.22861546  0.61666149     0.02900
C1972       C  0.22977340  0.20454068  0.61684038     0.00600
C1973       C  0.20642657  0.19169797  0.62492963    -0.11100
C1974       C  0.19428451  0.20215126  0.63252780     0.02800
H1975       H  0.23772113  0.25764139  0.62348293     0.15800
H1976       H  0.19748585  0.17321592  0.62566478     0.15800
C1977       C  0.17042525  0.18744629  0.64106981     0.37400
C1978       C  0.26499525  0.24300910  0.60845050     0.37300
N1979       N  0.15133299  0.17556752  0.64788512    -0.42900
N1980       N  0.28416242  0.25470789  0.60192348    -0.42900
C1981       C  0.24174786  0.13719951  0.69461915     0.00700
C1982       C  0.23398478  0.11438461  0.70188077    -0.11200
C1983       C  0.23209408  0.10739069  0.73293572     0.02900
C1984       C  0.23820802  0.12341635  0.75722094     0.00600
C1985       C  0.24327458  0.14542479  0.75004173    -0.11100
C1986       C  0.24498959  0.15238163  0.71912932     0.02800
H1987       H  0.23049924  0.10229305  0.68335023     0.15800
H1988       H  0.24737516  0.15772788  0.76849920     0.15800
C1989       C  0.25034018  0.17531590  0.71325648     0.37400
C1990       C  0.22402957  0.08377011  0.73939644     0.37300
N1991       N  0.25450522  0.19363755  0.70848485    -0.42900
N1992       N  0.21737731  0.06483686  0.74486269    -0.42900
C1993       C  0.25140721  0.12958372  0.94331458     0.00700
C1994       C  0.24208122  0.14302234  0.95039639    -0.11200
C1995       C  0.24033208  0.14877288  0.98123215     0.02900
C1996       C  0.24510720  0.13936565  0.50609057     0.00600
C1997       C  0.25216387  0.12413475  0.49883361    -0.11100
C1998       C  0.25805224  0.12096734  0.96811556     0.02800
H1999       H  0.23687849  0.14974544  0.93174599     0.15800
H2000       H  0.25703985  0.11699047  0.51734792     0.15800
C2001       C  0.26814831  0.10735796  0.96308753     0.37400
C2002       C  0.23153999  0.16343895  0.98693819     0.37300
N2003       N  0.27646307  0.09663910  0.95930621    -0.42900
N2004       N  0.22427048  0.17600148  0.49245508    -0.42900
C2005       C  0.46968783  0.23678225  0.64193401     0.00700
C2006       C  0.47269961  0.22420556  0.66490115    -0.11200
C2007       C  0.47324572  0.22950447  0.69650403     0.02900
C2008       C  0.47039681  0.24756431  0.70569472     0.00600
C2009       C  0.46955084  0.26143617  0.68258144    -0.11100
C2010       C  0.46941589  0.25638584  0.65093762     0.02800
H2011       H  0.47335257  0.20934690  0.65826263     0.15800
H2012       H  0.46783660  0.27566511  0.68931714     0.15800
C2013       C  0.46699721  0.27048280  0.62857817     0.37400
C2014       C  0.47462425  0.21480978  0.71891177     0.37300
N2015       N  0.46507749  0.28182282  0.61071503    -0.42900
N2016       N  0.47570661  0.20294903  0.73676729    -0.42900
C2017       C  0.46331815  0.23839487  0.89287857     0.00700
C2018       C  0.47266991  0.25506802  0.91622940    -0.11200
C2019       C  0.47127043  0.24905974  0.94762253     0.02900
C2020       C  0.46018322  0.22578866  0.95633087     0.00600
C2021       C  0.45156545  0.20917267  0.93272955    -0.11100
C2022       C  0.45283649  0.21520111  0.90138838     0.02800
H2023       H  0.48052340  0.27291257  0.90999134     0.15800
H2024       H  0.44292897  0.19123403  0.93880859     0.15800
C2025       C  0.44124149  0.19710661  0.87892310     0.37400
C2026       C  0.48041129  0.26718156  0.97028373     0.37300
N2027       N  0.43169583  0.18260061  0.86101491    -0.42900
N2028       N  0.48768671  0.28172590  0.98842817    -0.42900
C2029       C  0.33039530  0.17980927  0.58392414     0.00700
C2030       C  0.34785383  0.20192464  0.57525251    -0.11200
C2031       C  0.36982630  0.20685063  0.56715052     0.02900
C2032       C  0.37505009  0.18950533  0.56838952     0.00600
C2033       C  0.35751800  0.16733134  0.57666919    -0.11100
C2034       C  0.33538927  0.16227697  0.58399090     0.02800
H2035       H  0.34427203  0.21546572  0.57426994     0.15800
H2036       H  0.36104578  0.15374576  0.57736776     0.15800
C2037       C  0.31822418  0.13878395  0.59090190     0.37400
C2038       C  0.38634277  0.22980123  0.55695273     0.37300
N2039       N  0.30443643  0.11992107  0.59615615    -0.42900
N2040       N  0.39950140  0.24815234  0.54856800    -0.42900
C2041       C  0.84042098  0.04335583  0.61477504     0.00700
C2042       C  0.85270596  0.03229601  0.61556512    -0.11200
C2043       C  0.84192313  0.00894317  0.62200404     0.02900
C2044       C  0.81804054  0.99577376  0.62804650     0.00600
C2045       C  0.80564552  0.00674870  0.62685229    -0.11100
C2046       C  0.81650862  0.03021261  0.62039219     0.02800
H2047       H  0.87101985  0.04195213  0.61120023     0.15800
H2048       H  0.78733819  0.99700394  0.63121722     0.15800
C2049       C  0.80260081  0.04021170  0.61999472     0.37400
C2050       C  0.85603484  0.99915310  0.62165318     0.37300
N2051       N  0.79146004  0.04823676  0.61970753    -0.42900
N2052       N  0.86749969  0.99148494  0.62124744    -0.42900
C2053       C  0.66363732  0.83397779  0.66889378     0.00700
C2054       C  0.67962406  0.82805892  0.66026016    -0.11200
C2055       C  0.70275903  0.84473464  0.65529675     0.02900
C2056       C  0.71048344  0.86821828  0.65862960     0.00600
C2057       C  0.69453305  0.87409356  0.66768211    -0.11100
C2058       C  0.67145837  0.85738981  0.67302732     0.02800
H2059       H  0.67403512  0.81024015  0.65712786     0.15800
H2060       H  0.70011327  0.89190128  0.67089149     0.15800
C2061       C  0.65645577  0.86500231  0.68321791     0.37400
C2062       C  0.71789542  0.83690750  0.64677463     0.37300
N2063       N  0.64451429  0.87117258  0.69150901    -0.42900
N2064       N  0.72978539  0.83031640  0.64011379    -0.42900
C2065       C  0.57547250  0.80122642  0.52006495     0.00700
C2066       C  0.57385441  0.78054282  0.52676503    -0.11200
C2067       C  0.57275902  0.77355581  0.55761076     0.02900
C2068       C  0.57291064  0.78724415  0.58240714     0.00600
C2069       C  0.57218605  0.80672565  0.57547458    -0.11100
C2070       C  0.57358996  0.81385433  0.54468450     0.02800
H2071       H  0.57488454  0.77052840  0.50800716     0.15800
H2072       H  0.57194480  0.81721813  0.59417245     0.15800
C2073       C  0.57352270  0.83446371  0.53896885     0.37400
C2074       C  0.57219933  0.75262347  0.56315151     0.37300
N2075       N  0.57347065  0.85094222  0.53417759    -0.42900
N2076       N  0.57181492  0.73589885  0.56775638    -0.42900
C2077       C  0.57529786  0.80480138  0.83329995     0.00700
C2078       C  0.57728936  0.81986633  0.80977486    -0.11200
C2079       C  0.57652749  0.81423830  0.77824426     0.02900
C2080       C  0.57453877  0.79347640  0.76970996     0.00600
C2081       C  0.57101421  0.77779206  0.79313370    -0.11100
C2082       C  0.57103045  0.78307737  0.82462898     0.02800
H2083       H  0.58012754  0.83642826  0.81601318     0.15800
H2084       H  0.56900011  0.76156923  0.78681677     0.15800
C2085       C  0.56803643  0.76636053  0.84733908     0.37400
C2086       C  0.57918907  0.83064295  0.75524459     0.37300
N2087       N  0.56552490  0.75285466  0.86543312    -0.42900
N2088       N  0.58115301  0.84368595  0.73674338    -0.42900
C2089       C  0.79480325  0.89279671  0.98999648     0.00700
C2090       C  0.78623192  0.87546716  0.51353085    -0.11200
C2091       C  0.78639263  0.88109811  0.54490096     0.02900
C2092       C  0.79477269  0.90392180  0.55338268     0.00600
C2093       C  0.80406516  0.92086050  0.53030719    -0.11100
C2094       C  0.80447171  0.91535402  0.49898336     0.02800
H2095       H  0.77892461  0.85815244  0.00706763     0.15800
H2096       H  0.81069535  0.93848587  0.53676565     0.15800
C2097       C  0.81492069  0.93434958  0.97681047     0.37400
C2098       C  0.77641928  0.86291538  0.56757862     0.37300
N2099       N  0.82317118  0.94926044  0.95914980    -0.42900
N2100       N  0.76840850  0.84822975  0.58558203    -0.42900
C2101       C  0.80079664  0.91368303  0.73935195     0.00700
C2102       C  0.79878829  0.89270455  0.74524149    -0.11200
C2103       C  0.79716331  0.88486461  0.77567061     0.02900
C2104       C  0.79752132  0.89815262  0.80115989     0.00600
C2105       C  0.80164104  0.92004625  0.79531275    -0.11100
C2106       C  0.80326812  0.92787374  0.76478343     0.02800
H2107       H  0.79726404  0.88178541  0.72598081     0.15800
H2108       H  0.80260479  0.93071765  0.81457729     0.15800
C2109       C  0.80757975  0.95055627  0.76027298     0.37400
C2110       C  0.79495099  0.86300031  0.77985442     0.37300
N2111       N  0.81125949  0.96883995  0.75683699    -0.42900
N2112       N  0.79325300  0.84550829  0.78307313    -0.42900
C2113       C  0.70815262  0.85210933  0.90425533     0.00700
C2114       C  0.70574906  0.87032045  0.91372927    -0.11200
C2115       C  0.68426137  0.86716742  0.92002593     0.02900
C2116       C  0.66434790  0.84535873  0.91648422     0.00600
C2117       C  0.66673230  0.82707478  0.90717567    -0.11100
C2118       C  0.68828940  0.83020795  0.90110279     0.02800
H2119       H  0.72082005  0.88718036  0.91684262     0.15800
H2120       H  0.65163954  0.81021133  0.90422570     0.15800
C2121       C  0.68931957  0.81071254  0.89113933     0.37400
C2122       C  0.68344785  0.88655342  0.93108044     0.37300
N2123       N  0.69005014  0.79503348  0.88316993    -0.42900
N2124       N  0.68507601  0.90302076  0.44154972    -0.42900
C2125       C  0.87657080  0.70875673  0.59234735     0.00700
C2126       C  0.85369048  0.70310749  0.59310968    -0.11200
C2127       C  0.83547994  0.68063057  0.58917586     0.02900
C2128       C  0.83989906  0.66300984  0.58423978     0.00600
C2129       C  0.86276280  0.66859227  0.58385609    -0.11100
C2130       C  0.88099536  0.69110542  0.58771543     0.02800
H2131       H  0.84987560  0.71636360  0.59666864     0.15800
H2132       H  0.86654130  0.65532381  0.58014770     0.15800
C2133       C  0.90392315  0.69536605  0.58667572     0.37400
C2134       C  0.81255400  0.67635293  0.59085095     0.37300
N2135       N  0.92224701  0.69864371  0.58575582    -0.42900
N2136       N  0.79425243  0.67310562  0.59232143    -0.42900
C2137       C  0.79530974  0.57256742  0.66072019     0.00700
C2138       C  0.81610313  0.57407724  0.66630159    -0.11200
C2139       C  0.82409325  0.57599318  0.69655029     0.02900
C2140       C  0.81117130  0.57639938  0.72217216     0.00600
C2141       C  0.78933411  0.57258607  0.71685761    -0.11100
C2142       C  0.78132694  0.57067535  0.68645918     0.02800
H2143       H  0.82684816  0.57508890  0.64690003     0.15800
H2144       H  0.77898593  0.57227059  0.73633391     0.15800
C2145       C  0.75881802  0.56697525  0.68236432     0.37400
C2146       C  0.84580181  0.57777844  0.70051889     0.37300
N2147       N  0.74071292  0.56385005  0.67907782    -0.42900
N2148       N  0.86315703  0.57912673  0.70364231    -0.42900
C2149       C  0.82566756  0.58829295  0.91158630     0.00700
C2150       C  0.80651780  0.56824137  0.92348866    -0.11200
C2151       C  0.79968620  0.56666558  0.95481077     0.02900
C2152       C  0.81184840  0.58557192  0.97475214     0.00600
C2153       C  0.83133071  0.60530722  0.96311233    -0.11100
C2154       C  0.83844249  0.60680710  0.93213989     0.02800
H2155       H  0.79663144  0.55385240  0.90818023     0.15800
H2156       H  0.84084927  0.61992982  0.97822599     0.15800
C2157       C  0.85827662  0.62812841  0.92204015     0.37400
C2158       C  0.77944008  0.54594058  0.96531069     0.37300
N2159       N  0.87419018  0.64526013  0.91417534    -0.42900
N2160       N  0.76321491  0.52921947  0.97353886    -0.42900
C2161       C  0.81121206  0.83049274  0.88132995     0.00700
C2162       C  0.80035388  0.80686498  0.88626950    -0.11200
C2163       C  0.81181204  0.79534032  0.87994568     0.02900
C2164       C  0.83431654  0.80743951  0.86734486     0.00600
C2165       C  0.84492174  0.83100643  0.86220441    -0.11100
C2166       C  0.83382236  0.84256894  0.86926450     0.02800
H2167       H  0.78309673  0.79748236  0.89581902     0.15800
H2168       H  0.86218182  0.84066415  0.85269364     0.15800
C2169       C  0.84610497  0.86684483  0.86322775     0.37400
C2170       C  0.80043168  0.77146317  0.88798368     0.37300
N2171       N  0.85590828  0.88630464  0.85863660    -0.42900
N2172       N  0.79139005  0.75238240  0.89475884    -0.42900
C2173       C  0.90370552  0.79941339  0.75649305     0.00700
C2174       C  0.88875810  0.79717596  0.73282001    -0.11200
C2175       C  0.89398111  0.79618985  0.70145677     0.02900
C2176       C  0.91445363  0.79723604  0.69329872     0.00600
C2177       C  0.92997425  0.80079106  0.71671309    -0.11100
C2178       C  0.92496722  0.80216742  0.74800582     0.02800
H2179       H  0.87241267  0.79512401  0.73889527     0.15800
H2180       H  0.94586334  0.80184155  0.71058578     0.15800
C2181       C  0.94138595  0.80490381  0.77084032     0.37400
C2182       C  0.87717832  0.79216488  0.67848498     0.37300
N2183       N  0.95458881  0.80714818  0.78910176    -0.42900
N2184       N  0.86364760  0.78886441  0.66013820    -0.42900
C2185       C  0.90402134  0.79528285  0.94422763     0.00700
C2186       C  0.88811569  0.79136694  0.96800199    -0.11200
C2187       C  0.89436002  0.79282718  0.49957230     0.02900
C2188       C  0.91646951  0.79815690  0.50784234     0.00600
C2189       C  0.93214023  0.80308514  0.98382854    -0.11100
C2190       C  0.92656828  0.80220461  0.95241353     0.02800
H2191       H  0.87086699  0.78655541  0.96204090     0.15800
H2192       H  0.94918804  0.80724112  0.98974319     0.15800
C2193       C  0.94396914  0.80721547  0.92920550     0.37400
C2194       C  0.87671797  0.78765892  0.52249745     0.37300
N2195       N  0.95799554  0.81134565  0.91066413    -0.42900
N2196       N  0.86248747  0.78359752  0.54067324    -0.42900
C2197       C  0.86488432  0.71130771  0.83144041     0.00700
C2198       C  0.84320838  0.69369695  0.82184634    -0.11200
C2199       C  0.83888896  0.67188080  0.81486389     0.02900
C2200       C  0.85656482  0.66720608  0.81740442     0.00600
C2201       C  0.87841300  0.68501492  0.82594880    -0.11100
C2202       C  0.88273072  0.70679216  0.83297645     0.02800
H2203       H  0.82942867  0.69689642  0.81993103     0.15800
H2204       H  0.89218190  0.68180897  0.82800683     0.15800
C2205       C  0.90561366  0.72381283  0.84237160     0.37400
C2206       C  0.81606702  0.65476640  0.80534969     0.37300
N2207       N  0.92399745  0.73731584  0.84990037    -0.42900
N2208       N  0.79773872  0.64111615  0.79779776    -0.42900
C2209       C  0.21013296  0.99569374  0.87398592     0.00700
C2210       C  0.19850674  0.00679503  0.88169465    -0.11200
C2211       C  0.20811405  0.02997522  0.87569084     0.02900
C2212       C  0.23005837  0.04281897  0.86155812     0.00600
C2213       C  0.24181943  0.03176149  0.85394032    -0.11100
C2214       C  0.23203980  0.00839249  0.85981842     0.02800
H2215       H  0.18171090  0.99732172  0.89266922     0.15800
H2216       H  0.25859389  0.04131351  0.84295206     0.15800
C2217       C  0.24450623  0.99782384  0.85001716     0.37400
C2218       C  0.19503077  0.03998584  0.88506586     0.37300
N2219       N  0.25439160  0.98926047  0.84208910    -0.42900
N2220       N  0.18445563  0.04789151  0.89262488    -0.42900
C2221       C  0.19993994  0.83669232  0.91359553     0.00700
C2222       C  0.21814298  0.85866122  0.90531712    -0.11200
C2223       C  0.21448242  0.87647663  0.89947135     0.02900
C2224       C  0.19217902  0.87251880  0.90214667     0.00600
C2225       C  0.17406281  0.85061382  0.91057290    -0.11100
C2226       C  0.17766808  0.83282748  0.91626610     0.02800
H2227       H  0.23533121  0.86191143  0.90289400     0.15800
H2228       H  0.15684832  0.84730073  0.91302593     0.15800
C2229       C  0.15811349  0.81099052  0.92530208     0.37400
C2230       C  0.23379817  0.89827119  0.88975964     0.37300
N2231       N  0.14237283  0.79353367  0.93252491    -0.42900
N2232       N  0.24932057  0.91566544  0.88183926    -0.42900
C2233       C  0.04969401  0.83442850  0.62507728     0.00700
C2234       C  0.03936969  0.84742594  0.62549888    -0.11200
C2235       C  0.01608631  0.83762533  0.61974284     0.02900
C2236       C  0.00217411  0.81399075  0.61334515     0.00600
C2237       C  0.01243826  0.80089398  0.61288085    -0.11100
C2238       C  0.03589017  0.81081063  0.61856320     0.02800
H2239       H  0.04956828  0.86557691  0.63028051     0.15800
H2240       H  0.00211659  0.78276051  0.60805666     0.15800
C2241       C  0.04511603  0.79623425  0.61743456     0.37400
C2242       C  0.00722777  0.85253807  0.62077596     0.37300
N2243       N  0.05237691  0.78442986  0.61647085    -0.42900
N2244       N  0.00028385  0.86461356  0.62163539    -0.42900
C2245       C  0.14642583  0.91532430  0.98318012     0.00700
C2246       C  0.12615786  0.89465832  0.99021109    -0.11200
C2247       C  0.12076921  0.88847819  0.52081832     0.02900
C2248       C  0.13526290  0.90199221  0.54515557     0.00600
C2249       C  0.15426100  0.92364806  0.53813115    -0.11100
C2250       C  0.16028961  0.93084629  0.50719149     0.02800
H2251       H  0.11575671  0.88351106  0.97158020     0.15800
H2252       H  0.16507059  0.93449848  0.55669727     0.15800
C2253       C  0.17918531  0.95238765  0.00225310     0.37400
C2254       C  0.09958890  0.86714354  0.52674674     0.37300
N2255       N  0.19500333  0.97046022  0.99793682    -0.42900
N2256       N  0.08252087  0.85011723  0.53133469    -0.42900
C2257       C  0.13255096  0.89743402  0.73285355     0.00700
C2258       C  0.15344470  0.91733611  0.73972853    -0.11200
C2259       C  0.16067060  0.92312782  0.77043470     0.02900
C2260       C  0.14678407  0.90888481  0.79517348     0.00600
C2261       C  0.12517518  0.88984716  0.78845465    -0.11100
C2262       C  0.11798305  0.88402117  0.75765996     0.02800
H2263       H  0.16469705  0.92791953  0.72098439     0.15800
H2264       H  0.11417188  0.87903690  0.80721985     0.15800
C2265       C  0.09553783  0.86426407  0.75222902     0.37400
C2266       C  0.18243280  0.94385706  0.77575912     0.37300
N2267       N  0.07750414  0.84851011  0.74784338    -0.42900
N2268       N  0.19984096  0.96048120  0.78003342    -0.42900
C2269       C  0.24220400  0.79593009  0.51983300     0.00700
C2270       C  0.22806529  0.77984737  0.54242445    -0.11200
C2271       C  0.23366658  0.78336558  0.57389181     0.02900
C2272       C  0.25362491  0.80369416  0.58339989     0.00600
C2273       C  0.26841788  0.81916746  0.56049536    -0.11100
C2274       C  0.26297126  0.81536810  0.52891876     0.02800
H2275       H  0.21221423  0.76465675  0.53550735     0.15800
H2276       H  0.28387964  0.83477633  0.56734016     0.15800
C2277       C  0.27811865  0.83244791  0.50663453     0.37400
C2278       C  0.21784295  0.76641158  0.59582747     0.37300
N2279       N  0.29020112  0.84609267  0.48868434    -0.42900
N2280       N  0.20516001  0.75277865  0.61335609    -0.42900
C2281       C  0.23953512  0.78386496  0.83349395     0.00700
C2282       C  0.26072017  0.80288575  0.82462472    -0.11200
C2283       C  0.26602310  0.80892563  0.79333628     0.02900
C2284       C  0.24982708  0.79600498  0.77028168     0.00600
C2285       C  0.23005295  0.77529366  0.77870468    -0.11100
C2286       C  0.22492175  0.76899455  0.81010179     0.02800
H2287       H  0.27260259  0.81394283  0.84218538     0.15800
H2288       H  0.21800207  0.76469046  0.76101076     0.15800
C2289       C  0.20453046  0.74736726  0.81767703     0.37400
C2290       C  0.28809375  0.82871030  0.78553113     0.37300
N2291       N  0.18835611  0.72992156  0.82381411    -0.42900
N2292       N  0.30584657  0.84446329  0.77931383    -0.42900
C2293       C  0.21031406  0.84639159  0.66663269     0.00700
C2294       C  0.18764249  0.82844001  0.66179912    -0.11200
C2295       C  0.17039301  0.83257627  0.65427038     0.02900
C2296       C  0.17548576  0.85522942  0.65152860     0.00600
C2297       C  0.19816244  0.87323788  0.65648140    -0.11100
C2298       C  0.21546908  0.86908482  0.66393086     0.02800
H2299       H  0.18329487  0.81089691  0.66347966     0.15800
H2300       H  0.20245727  0.89076170  0.65477365     0.15800
C2301       C  0.23822067  0.88851278  0.66883883     0.37400
C2302       C  0.14773727  0.81308513  0.64913763     0.37300
N2303       N  0.25643727  0.90411178  0.67276010    -0.42900
N2304       N  0.12959306  0.79744194  0.64498657    -0.42900
C2305       C  0.90923252  0.54580981  0.78596686     0.00700
C2306       C  0.88525140  0.53358638  0.78469055    -0.11200
C2307       C  0.87289609  0.54413166  0.78984444     0.02900
C2308       C  0.88443623  0.56769166  0.79679882     0.00600
C2309       C  0.90849444  0.58026330  0.79708120    -0.11100
C2310       C  0.92095452  0.56958341  0.79185173     0.02800
H2311       H  0.87584803  0.51544360  0.77973953     0.15800
H2312       H  0.91760230  0.59840817  0.80195020     0.15800
C2313       C  0.94559077  0.58346809  0.79297821     0.37400
C2314       C  0.84833326  0.53018469  0.78691591     0.37300
N2315       N  0.96533627  0.59473716  0.79391894    -0.42900
N2316       N  0.82867957  0.51891687  0.78446437    -0.42900
C2317       C  0.15295811  0.50338611  0.70746487     0.00700
C2318       C  0.17695833  0.51529385  0.70666062    -0.11200
C2319       C  0.18876150  0.50409347  0.70189725     0.02900
C2320       C  0.17656849  0.48004926  0.69831257     0.00600
C2321       C  0.15250956  0.46809644  0.69843152    -0.11100
C2322       C  0.14067155  0.47948775  0.70263627     0.02800
H2323       H  0.18677468  0.53366018  0.70975686     0.15800
H2324       H  0.14284339  0.44974920  0.69519726     0.15800
C2325       C  0.11601322  0.46616832  0.70150466     0.37400
C2326       C  0.21344716  0.51807255  0.70077738     0.37300
N2327       N  0.09624984  0.45547778  0.70041206    -0.42900
N2328       N  0.23320883  0.52935791  0.69973017    -0.42900
C2329       C  0.05276645  0.52831164  0.73936058     0.00700
C2330       C  0.04854249  0.54616575  0.73738978    -0.11200
C2331       C  0.02710782  0.54282386  0.74523375     0.02900
C2332       C  0.00913229  0.52110823  0.75535166     0.00600
C2333       C  0.01331248  0.50323412  0.75699500    -0.11100
C2334       C  0.03474343  0.50659966  0.74935290     0.02800
H2335       H  0.06211034  0.56296864  0.72979711     0.15800
H2336       H  0.99979039  0.48642776  0.76465035     0.15800
C2337       C  0.03769339  0.48749332  0.75298435     0.37400
C2338       C  0.02423002  0.56203814  0.74243254     0.37300
N2339       N  0.03996117  0.47213287  0.75609801    -0.42900
N2340       N  0.02202910  0.57750055  0.74015786    -0.42900
C2341       C  0.14906639  0.66485564  0.96270651     0.00700
C2342       C  0.17040641  0.67958625  0.97614547    -0.11200
C2343       C  0.18234400  0.70300832  0.97037535     0.02900
C2344       C  0.17309339  0.71218064  0.95037431     0.00600
C2345       C  0.15120080  0.69777912  0.93829700    -0.11100
C2346       C  0.13913433  0.67422812  0.94422297     0.02800
H2347       H  0.17797766  0.67274768  0.99103227     0.15800
H2348       H  0.14391612  0.70477470  0.92316649     0.15800
C2349       C  0.11727403  0.66009916  0.92962759     0.37400
C2350       C  0.20390239  0.71729340  0.98576357     0.37300
N2351       N  0.09975834  0.64884144  0.91786421    -0.42900
N2352       N  0.22112806  0.72882603  0.99809582    -0.42900
C2353       C  0.13974465  0.58508448  0.56595049     0.00700
C2354       C  0.13799087  0.59822554  0.58972547    -0.11200
C2355       C  0.13745911  0.59264008  0.62109132     0.02900
C2356       C  0.13841363  0.57339291  0.62918455     0.00600
C2357       C  0.14133352  0.56092407  0.60560554    -0.11100
C2358       C  0.14228039  0.56672173  0.57422660     0.02800
H2359       H  0.13605893  0.61238484  0.58377425     0.15800
H2360       H  0.14216028  0.54612799  0.61170617     0.15800
C2361       C  0.14422272  0.55251889  0.55112879     0.37400
C2362       C  0.13393336  0.60571204  0.64434809     0.37300
N2363       N  0.14579597  0.54115266  0.53261073    -0.42900
N2364       N  0.13102067  0.61607068  0.66308776    -0.42900
C2365       C  0.14011267  0.58139968  0.87987634     0.00700
C2366       C  0.13971525  0.56130672  0.87293876    -0.11200
C2367       C  0.14038370  0.55507132  0.84203602     0.02900
C2368       C  0.14216189  0.56949384  0.81735419     0.00600
C2369       C  0.14493722  0.59069656  0.82466812    -0.11100
C2370       C  0.14361141  0.59658326  0.85549392     0.02800
H2371       H  0.13727775  0.54967089  0.89155978     0.15800
H2372       H  0.14658713  0.60209690  0.80617146     0.15800
C2373       C  0.14516778  0.61801760  0.86140452     0.37400
C2374       C  0.13815898  0.53329943  0.83653887     0.37300
N2375       N  0.14630805  0.63513020  0.86619423    -0.42900
N2376       N  0.13620357  0.51575366  0.83234869    -0.42900
C2377       C  0.90095159  0.37757453  0.53642783     0.00700
C2378       C  0.91379218  0.36750018  0.54232097    -0.11200
C2379       C  0.90305110  0.34394234  0.54768808     0.02900
C2380       C  0.87888757  0.33009921  0.54816693     0.00600
C2381       C  0.86623121  0.34015745  0.54125739    -0.11100
C2382       C  0.87687648  0.36340112  0.53501714     0.02800
H2383       H  0.93230374  0.37803888  0.54284055     0.15800
H2384       H  0.84771450  0.32977431  0.54045341     0.15800
C2385       C  0.86241822  0.37186346  0.52648722     0.37400
C2386       C  0.91732270  0.33461805  0.55212136     0.37300
N2387       N  0.85068415  0.37853276  0.01971543    -0.42900
N2388       N  0.92889202  0.32724548  0.55528175    -0.42900
C2389       C  0.91775332  0.46172072  0.62157741     0.00700
C2390       C  0.91628295  0.48080036  0.62856343    -0.11200
C2391       C  0.91598053  0.48718864  0.65945952     0.02900
C2392       C  0.91717803  0.47434832  0.68408420     0.00600
C2393       C  0.91611904  0.45388893  0.67706128    -0.11100
C2394       C  0.91638543  0.44749777  0.64612675     0.02800
H2395       H  0.91663312  0.49146626  0.60988539     0.15800
H2396       H  0.91639278  0.44351274  0.69567019     0.15800
C2397       C  0.91527641  0.42628846  0.64013052     0.37400
C2398       C  0.91489465  0.50727103  0.66519148     0.37300
N2399       N  0.91420360  0.40922537  0.63517870    -0.42900
N2400       N  0.91398365  0.52332765  0.66990330    -0.42900
C2401       C  0.92316569  0.47696672  0.87124995     0.00700
C2402       C  0.92964151  0.49323174  0.89504036    -0.11200
C2403       C  0.92746186  0.48707323  0.92640847     0.02900
C2404       C  0.91879511  0.46411465  0.93475025     0.00600
C2405       C  0.91134379  0.44762630  0.91108400    -0.11100
C2406       C  0.91317920  0.45377155  0.87960546     0.02800
H2407       H  0.93706911  0.51107188  0.88911632     0.15800
H2408       H  0.90470712  0.42994731  0.91715940     0.15800
C2409       C  0.90581969  0.43608906  0.85647694     0.37400
C2410       C  0.93605082  0.50504954  0.94929650     0.37300
N2411       N  0.89987984  0.42191164  0.83792400    -0.42900
N2412       N  0.94302968  0.51950194  0.96756467    -0.42900
C2413       C  0.00605787  0.50171361  0.50970646     0.00700
C2414       C  0.01059559  0.52453009  0.00575967    -0.11200
C2415       C  0.03229488  0.54222541  0.99633783     0.02900
C2416       C  0.04993152  0.53782805  0.99064875     0.00600
C2417       C  0.04550891  0.51499625  0.49497750    -0.11100
C2418       C  0.02368982  0.49725059  0.50446613     0.02800
H2419       H  0.99733491  0.52834439  0.00969362     0.15800
H2420       H  0.05886888  0.51130099  0.49126797     0.15800
C2421       C  0.02016638  0.47486327  0.50900452     0.37400
C2422       C  0.03570572  0.56465977  0.99308611     0.37300
N2423       N  0.01747632  0.45697822  0.51265897    -0.42900
N2424       N  0.03824345  0.58256717  0.99061498    -0.42900
C2425       C  0.33228364  0.47330047  0.94454193     0.00700
C2426       C  0.34119443  0.46212015  0.96085293    -0.11200
C2427       C  0.36463003  0.47324337  0.96735425     0.02900
C2428       C  0.37944834  0.49614538  0.95795047     0.00600
C2429       C  0.37071209  0.50665425  0.93988556    -0.11100
C2430       C  0.34754953  0.49545755  0.93278558     0.02800
H2431       H  0.32973909  0.44494310  0.96951798     0.15800
H2432       H  0.38206696  0.52389693  0.93132439     0.15800
C2433       C  0.34015695  0.50714498  0.91298091     0.37400
C2434       C  0.37271841  0.46101572  0.98455051     0.37300
N2435       N  0.33442322  0.51657766  0.89694126    -0.42900
N2436       N  0.37912455  0.45105024  0.99812549    -0.42900
C2437       C  0.66841325  0.54112298  0.53271833     0.00700
C2438       C  0.67751403  0.52741622  0.53831651    -0.11200
C2439       C  0.70042777  0.53690173  0.54595995     0.02900
C2440       C  0.71513841  0.56089687  0.54807031     0.00600
C2441       C  0.70610376  0.57469508  0.54229613    -0.11100
C2442       C  0.68303018  0.56508833  0.53462068     0.02800
H2443       H  0.67074351  0.51565616  0.01092710     0.15800
H2444       H  0.71713647  0.59311305  0.54348571     0.15800
C2445       C  0.67508720  0.58028414  0.52816334     0.37400
C2446       C  0.71320344  0.52858796  0.01940992     0.37300
N2447       N  0.66878550  0.59251076  0.52289456    -0.42900
N2448       N  0.72104950  0.51795276  0.01199972    -0.42900
C2449       C  0.50602116  0.52811293  0.99845968     0.00700
C2450       C  0.50056259  0.50577086  0.50806857    -0.11200
C2451       C  0.51758511  0.50102968  0.51433988     0.02900
C2452       C  0.54102490  0.51845303  0.51144614     0.00600
C2453       C  0.54647992  0.54075740  0.00157978    -0.11100
C2454       C  0.52944675  0.54548634  0.99526482     0.02800
H2455       H  0.48275905  0.49219857  0.51044623     0.15800
H2456       H  0.56428049  0.55416260  0.99844613     0.15800
C2457       C  0.53677311  0.56828844  0.98504635     0.37400
C2458       C  0.51022412  0.47804993  0.52377208     0.37300
N2459       N  0.54279727  0.58661629  0.97693351    -0.42900
N2460       N  0.50427161  0.45962041  0.53129886    -0.42900
C2461       C  0.48052174  0.32851288  0.79701327     0.00700
C2462       C  0.50392672  0.34265104  0.80328393    -0.11200
C2463       C  0.51536587  0.36633232  0.79961744     0.02900
C2464       C  0.50355926  0.37655210  0.78839762     0.00600
C2465       C  0.47993432  0.36257462  0.78336466    -0.11100
C2466       C  0.46833033  0.33884649  0.78782409     0.02800
H2467       H  0.51348916  0.33520515  0.81119468     0.15800
H2468       H  0.47048035  0.37014634  0.77550511     0.15800
C2469       C  0.44398857  0.32573350  0.78266439     0.37400
C2470       C  0.53906349  0.37958730  0.80860843     0.37300
N2471       N  0.42444956  0.31531462  0.77872435    -0.42900
N2472       N  0.55797274  0.39012225  0.81614888    -0.42900
C2473       C  0.57040365  0.46014658  0.67678426     0.00700
C2474       C  0.55760206  0.44516710  0.65261774    -0.11200
C2475       C  0.56331104  0.45152927  0.62132041     0.02900
C2476       C  0.58196159  0.47349154  0.61366045     0.00600
C2477       C  0.59566078  0.48783189  0.63775993    -0.11100
C2478       C  0.59024554  0.48132969  0.66900325     0.02800
H2479       H  0.54246651  0.42875789  0.65818266     0.15800
H2480       H  0.61028909  0.50459938  0.63220504     0.15800
C2481       C  0.60446409  0.49750563  0.69245749     0.37400
C2482       C  0.54870900  0.43584344  0.59773333     0.37300
N2483       N  0.61584629  0.51044544  0.71127354    -0.42900
N2484       N  0.53701289  0.42328753  0.57879353    -0.42900
C2485       C  0.56908671  0.46814287  0.86256186     0.00700
C2486       C  0.55523826  0.45370101  0.88676429    -0.11200
C2487       C  0.56174953  0.45884242  0.91781852     0.02900
C2488       C  0.58261532  0.47897704  0.92531606     0.00600
C2489       C  0.59678136  0.49315604  0.90092830    -0.11100
C2490       C  0.59023779  0.48789373  0.86977920     0.02800
H2491       H  0.53892793  0.43848823  0.88141113     0.15800
H2492       H  0.61270979  0.50880209  0.90623933     0.15800
C2493       C  0.60466195  0.50386584  0.84591249     0.37400
C2494       C  0.54581768  0.44391031  0.94142577     0.37300
N2495       N  0.61607641  0.51667613  0.82670685    -0.42900
N2496       N  0.53296683  0.43198529  0.96030414    -0.42900
C2497       C  0.55941164  0.70830587  0.69616218     0.00700
C2498       C  0.56842029  0.69540238  0.68508035    -0.11200
C2499       C  0.55769982  0.67208431  0.69210132     0.02900
C2500       C  0.53776961  0.66137103  0.71117516     0.00600
C2501       C  0.52928575  0.67458499  0.72303675    -0.11100
C2502       C  0.53986272  0.69776835  0.71581079     0.02800
H2503       H  0.58347482  0.70338995  0.67007602     0.15800
H2504       H  0.51421420  0.66676927  0.73801083     0.15800
C2505       C  0.53070101  0.71049594  0.72975097     0.37400
C2506       C  0.56687808  0.65946325  0.67799429     0.37300
N2507       N  0.52349434  0.72079686  0.74092237    -0.42900
N2508       N  0.57416424  0.64933956  0.66648932    -0.42900
C2509       C  0.46786792  0.57819917  0.63496783     0.00700
C2510       C  0.44613044  0.55966188  0.62761958    -0.11200
C2511       C  0.43952227  0.55434722  0.59655652     0.02900
C2512       C  0.45486832  0.56772227  0.57236483     0.00600
C2513       C  0.47540045  0.58777786  0.57995956    -0.11100
C2514       C  0.48202855  0.59307191  0.61091149     0.02800
H2515       H  0.43486417  0.54852641  0.64596025     0.15800
H2516       H  0.48711070  0.59849612  0.56166388     0.15800
C2517       C  0.50380974  0.61352799  0.61726038     0.37400
C2518       C  0.41720820  0.53471984  0.59004358     0.37300
N2519       N  0.52124522  0.62986728  0.62247640    -0.42900
N2520       N  0.39935538  0.51906552  0.58449863    -0.42900
C2521       C  0.47991755  0.57959630  0.82413925     0.00700
C2522       C  0.46135995  0.57976679  0.83799960    -0.11200
C2523       C  0.45617324  0.57477937  0.86977444     0.02900
C2524       C  0.46945242  0.56909655  0.88781884     0.00600
C2525       C  0.48802635  0.56918083  0.87403651    -0.11100
C2526       C  0.49345027  0.57443480  0.84270837     0.02800
H2527       H  0.45084802  0.58363562  0.82400137     0.15800
H2528       H  0.49812723  0.56459935  0.88778066     0.15800
C2529       C  0.51227019  0.57301709  0.83009247     0.37400
C2530       C  0.43650210  0.57435893  0.88285332     0.37300
N2531       N  0.52735134  0.57184251  0.82015935    -0.42900
N2532       N  0.42071100  0.57400996  0.89328768    -0.42900
C2533       C  0.52265420  0.50101889  0.75277937     0.00700
C2534       C  0.50218806  0.49493718  0.73784860    -0.11200
C2535       C  0.49733085  0.51153045  0.72912870     0.02900
C2536       C  0.51287230  0.53481745  0.73611713     0.00600
C2537       C  0.53333758  0.54086784  0.75094619    -0.11100
C2538       C  0.53841759  0.52440122  0.75909265     0.02800
H2539       H  0.49019011  0.47719931  0.73213353     0.15800
H2540       H  0.54539673  0.55859689  0.75665368     0.15800
C2541       C  0.55992005  0.53219194  0.77420385     0.37400
C2542       C  0.47678398  0.50419264  0.71179472     0.37300
N2543       N  0.57722636  0.53849639  0.78610805    -0.42900
N2544       N  0.46042496  0.49828609  0.69762644    -0.42900
C2545       C  0.37953281  0.89004215  0.71714799     0.00700
C2546       C  0.36550908  0.86656113  0.72304713    -0.11200
C2547       C  0.34276474  0.85419054  0.71373700     0.02900
C2548       C  0.33319931  0.86544880  0.69885627     0.00600
C2549       C  0.34704053  0.88903122  0.69338081    -0.11100
C2550       C  0.37012961  0.90130610  0.70182669     0.02800
H2551       H  0.37243572  0.85760931  0.73462584     0.15800
H2552       H  0.33997987  0.89780033  0.68165894     0.15800
C2553       C  0.38390565  0.92501445  0.69282048     0.37400
C2554       C  0.32980831  0.82996015  0.72005750     0.37300
N2555       N  0.39493706  0.94394604  0.68526221    -0.42900
N2556       N  0.31960948  0.81053670  0.72498516    -0.42900
C2557       C  0.66228283  0.14430173  0.79022867     0.00700
C2558       C  0.67240891  0.16625228  0.80308017    -0.11200
C2559       C  0.69555957  0.17880549  0.81065091     0.02900
C2560       C  0.70936555  0.16944294  0.80538827     0.00600
C2561       C  0.69903069  0.14710001  0.79361738    -0.11100
C2562       C  0.67576266  0.13452077  0.78604446     0.02800
H2563       H  0.66218791  0.17380745  0.80720558     0.15800
H2564       H  0.70928088  0.13958779  0.78948982     0.15800
C2565       C  0.66649803  0.11201087  0.77304602     0.37400
C2566       C  0.70443246  0.20126009  0.82368070     0.37300
N2567       N  0.65903410  0.09396894  0.76260383    -0.42900
N2568       N  0.71138956  0.21925013  0.83403074    -0.42900
C2569       C  0.53750439  0.03922417  0.76038701     0.00700
C2570       C  0.54073410  0.02202214  0.77140676    -0.11200
C2571       C  0.52385701  0.99892739  0.76766328     0.02900
C2572       C  0.50365890  0.99271935  0.75139911     0.00600
C2573       C  0.50029339  0.00992635  0.74088141    -0.11100
C2574       C  0.51684706  0.03297244  0.74537987     0.02800
H2575       H  0.55622025  0.02663630  0.78374684     0.15800
H2576       H  0.48478725  0.00537990  0.72864205     0.15800
C2577       C  0.51239323  0.04976641  0.73338006     0.37400
C2578       C  0.52707896  0.98210816  0.78254543     0.37300
N2579       N  0.50874055  0.06317612  0.72382006    -0.42900
N2580       N  0.52953714  0.96870817  0.79493723    -0.42900
C2581       C  0.47785993  0.16626067  0.53999153     0.00700
C2582       C  0.46569236  0.14241749  0.54361691    -0.11200
C2583       C  0.47643323  0.12999343  0.53929718     0.02900
C2584       C  0.49997518  0.14147274  0.53132310     0.00600
C2585       C  0.51194894  0.16525109  0.52705622    -0.11100
C2586       C  0.50125038  0.17762110  0.53104302     0.02800
H2587       H  0.44771335  0.13339408  0.55011858     0.15800
H2588       H  0.52991109  0.17438923  0.52042213     0.15800
C2589       C  0.51481433  0.20189766  0.52503271     0.37400
C2590       C  0.46283761  0.10559156  0.54366848     0.37300
N2591       N  0.52564593  0.22131788  0.52011969    -0.42900
N2592       N  0.45183508  0.08601736  0.54713382    -0.42900
C2593       C  0.56765088  0.12728480  0.61592314     0.00700
C2594       C  0.58979559  0.13215485  0.62184252    -0.11200
C2595       C  0.59722406  0.13345260  0.65238479     0.02900
C2596       C  0.58237195  0.13000786  0.67772587     0.00600
C2597       C  0.56105593  0.12724109  0.67170647    -0.11100
C2598       C  0.55357921  0.12578833  0.64125850     0.02800
H2599       H  0.60096152  0.13387097  0.60260042     0.15800
H2600       H  0.54959232  0.12493319  0.69085765     0.15800
C2601       C  0.53126910  0.12254130  0.63683629     0.37400
C2602       C  0.62008988  0.13821291  0.65690347     0.37300
N2603       N  0.51340472  0.11998676  0.63342567    -0.42900
N2604       N  0.63849954  0.14217788  0.66025408    -0.42900
C2605       C  0.56679916  0.12877672  0.92754762     0.00700
C2606       C  0.58712318  0.12966815  0.91969087    -0.11200
C2607       C  0.59292268  0.12878622  0.88863711     0.02900
C2608       C  0.57824288  0.12703911  0.86466521     0.00600
C2609       C  0.55915200  0.12847431  0.87229791    -0.11100
C2610       C  0.55333008  0.12933734  0.90342483     0.02800
H2611       H  0.59788636  0.12972158  0.93788133     0.15800
H2612       H  0.54812786  0.12779732  0.85403066     0.15800
C2613       C  0.53339104  0.13065426  0.90985817     0.37400
C2614       C  0.61396989  0.12951223  0.88207175     0.37300
N2615       N  0.51748564  0.13188272  0.91481287    -0.42900
N2616       N  0.63086115  0.13017575  0.87677404    -0.42900
C2617       C  0.54152618  0.89411735  0.96272766     0.00700
C2618       C  0.56305249  0.90171191  0.97539159    -0.11200
C2619       C  0.57504127  0.89090839  0.96781135     0.02900
C2620       C  0.56574321  0.87263052  0.94631992     0.00600
C2621       C  0.54445393  0.86553985  0.93320013    -0.11100
C2622       C  0.53229903  0.87591516  0.94129110     0.02800
H2623       H  0.57305598  0.91847583  0.48834920     0.15800
H2624       H  0.53708330  0.85159168  0.91667052     0.15800
C2625       C  0.51052186  0.86774697  0.92673050     0.37400
C2626       C  0.59847596  0.90048022  0.48037785     0.37300
N2627       N  0.49306200  0.86119526  0.91514173    -0.42900
N2628       N  0.61521863  0.90608923  0.49342088    -0.42900
C2629       C  0.47791393  0.90700808  0.57800966     0.00700
C2630       C  0.45711714  0.90533556  0.58541618    -0.11200
C2631       C  0.45043017  0.90510891  0.61635752     0.02900
C2632       C  0.46458996  0.90638538  0.64072789     0.00600
C2633       C  0.48424089  0.90586747  0.63351010    -0.11100
C2634       C  0.49111506  0.90637327  0.60251973     0.02800
H2635       H  0.44653984  0.90536723  0.56702010     0.15800
H2636       H  0.49500137  0.90645607  0.65210519     0.15800
C2637       C  0.51208809  0.90682566  0.59681478     0.37400
C2638       C  0.42901832  0.90375184  0.62244804     0.37300
N2639       N  0.52893994  0.90721435  0.59249257    -0.42900
N2640       N  0.41182562  0.90257684  0.62728205    -0.42900
C2641       C  0.45888174  0.90272820  0.82783350     0.00700
C2642       C  0.47999782  0.90517524  0.83431934    -0.11200
C2643       C  0.48728349  0.90689406  0.86493058     0.02900
C2644       C  0.47313757  0.90578448  0.88992179     0.00600
C2645       C  0.45118955  0.90126998  0.88360255    -0.11100
C2646       C  0.44405693  0.89998191  0.85289706     0.02800
H2647       H  0.49150207  0.90713807  0.81540493     0.15800
H2648       H  0.44008832  0.90008226  0.90262307     0.15800
C2649       C  0.42171920  0.89648565  0.84787088     0.37400
C2650       C  0.50955854  0.91018851  0.86994560     0.37300
N2651       N  0.40384283  0.89375242  0.84384415    -0.42900
N2652       N  0.52740588  0.91282914  0.87390075    -0.42900
C2653       C  0.51735555  0.99410126  0.99367815     0.00700
C2654       C  0.53852216  0.01060935  0.00610154    -0.11200
C2655       C  0.54338988  0.03254463  0.01357700     0.02900
C2656       C  0.52735961  0.04061333  0.51073092     0.00600
C2657       C  0.50746395  0.02455688  0.49518581    -0.11100
C2658       C  0.50339098  0.00298218  0.48722777     0.02800
H2659       H  0.55123774  0.00625052  0.01066982     0.15800
H2660       H  0.49511635  0.02900180  0.48865257     0.15800
C2661       C  0.48269556  0.98776081  0.47064075     0.37400
C2662       C  0.56521755  0.04814169  0.02744369     0.37300
N2663       N  0.46607964  0.97561887  0.45737561    -0.42900
N2664       N  0.58273370  0.06044504  0.03863650    -0.42900
loop_ 
_geom_bond_atom_site_label_1 
_geom_bond_atom_site_label_2 
_geom_bond_distance 
_geom_bond_site_symmetry_2 
_ccdc_geom_bond_type 
O1            C4   1.271       .  A
O1        Cd1338   2.484   1_554  S
C2           O11   1.265       .  A
C2            O7   1.272       .  A
C2         C1312   1.484       .  S
O3            C9   1.271       .  A
O3           Cd6   2.500       .  S
C4           O12   1.265       .  A
C4         C1297   1.487       .  S
C5           O10   1.272       .  A
C5            O8   1.266       .  A
C5         C1285   1.480       .  S
Cd6          O13   2.433       .  S
Cd6          O11   2.415       .  S
Cd6           O7   2.501       .  S
Cd6          O10   2.483       .  S
Cd6           O8   2.413       .  S
Cd6        O1333   2.481       .  S
Cd6        O1344   2.450       .  S
C9           O13   1.264       .  A
C9         C1321   1.492       .  S
O12       Cd1338   2.437   1_554  S
O14          C17   1.272       .  A
O14         Cd19   2.494       .  S
C15          O24   1.264       .  A
C15          O20   1.272       .  A
C15        C1273   1.480       .  S
O16          C22   1.271       .  A
O16         Cd19   2.476       .  S
C17          O25   1.265       .  A
C17        C1261   1.484       .  S
C18          O23   1.271       .  A
C18          O21   1.267       .  A
C18        C1252   1.486       .  S
Cd19         O26   2.445       .  S
Cd19         O25   2.420       .  S
Cd19         O23   2.485       .  S
Cd19         O21   2.409       .  S
Cd19       O1356   2.435   1_554  S
Cd19       O1352   2.487   1_554  S
O20       Cd1351   2.480       .  S
C22          O26   1.264       .  A
C22        C1324   1.489       .  S
O24       Cd1351   2.423       .  S
O27          C30   1.269       .  A
O27         Cd32   2.477       .  S
C28          O37   1.268       .  A
C28          O33   1.270       .  A
C28        C1225   1.485       .  S
O29          C35   1.270       .  A
O29         Cd32   2.474       .  S
C30          O38   1.263       .  A
C30        C1237   1.479       .  S
C31          O36   1.271       .  A
C31          O34   1.264       .  A
C31        C1276   1.477       .  S
Cd32         O39   2.441       .  S
Cd32         O38   2.427       .  S
Cd32         O37   2.426       .  S
Cd32         O33   2.449       .  S
Cd32         O36   2.488       .  S
Cd32         O34   2.401       .  S
C35          O39   1.265       .  A
C35        C1264   1.484       .  S
O40          C43   1.269       .  A
O40         Cd45   2.460       .  S
C41          O50   1.264       .  A
C41          O46   1.268       .  A
C41        C1240   1.479       .  S
O42          C48   1.271       .  A
O42         Cd45   2.478       .  S
C43          O51   1.268       .  A
C43        C1213   1.484       .  S
C44          O49   1.271       .  A
C44          O47   1.263       .  A
C44        C1300   1.483       .  S
Cd45         O52   2.433       .  S
Cd45         O51   2.410       .  S
Cd45         O50   2.439       .  S
Cd45         O46   2.462       .  S
Cd45         O49   2.510       .  S
Cd45         O47   2.422       .  S
C48          O52   1.265       .  A
C48        C1309   1.483       .  S
O53          C56   1.273       .  A
O53         Cd58   2.502       .  S
C54          O63   1.264       .  A
C54          O59   1.273       .  A
C54        C1189   1.480       .  S
O55          C61   1.270       .  A
O55         Cd58   2.466       .  S
C56          O64   1.264       .  A
C56        C1177   1.481       .  S
C57          O62   1.270       .  A
C57          O60   1.268       .  A
C57        C1168   1.488       .  S
Cd58         O65   2.456       .  S
Cd58         O64   2.389       .  S
Cd58         O63   2.386       .  S
Cd58         O59   2.503       .  S
Cd58         O62   2.468       .  S
Cd58         O60   2.430       .  S
C61          O65   1.266       .  A
C61        C1204   1.489       .  S
O66          C69   1.269       .  A
O66         Cd71   2.475       .  S
C67          O76   1.265       .  A
C67          O72   1.270       .  A
C67        C1153   1.481       .  S
O68          C74   1.271       .  A
O68         Cd71   2.510       .  S
C69          O77   1.266       .  A
C69        C1141   1.488       .  S
C70          O75   1.272       .  A
C70          O73   1.265       .  A
C70        C1132   1.488       .  S
Cd71         O78   2.415       .  S
Cd71         O77   2.450       .  S
Cd71         O76   2.437       .  S
Cd71         O72   2.486       .  S
Cd71         O75   2.484       .  S
Cd71         O73   2.414       .  S
C74          O78   1.262       .  A
C74        C1201   1.491       .  S
O79          C82   1.271       .  A
O79         Cd84   2.503       .  S
C80          O89   1.266       .  A
C80          O85   1.271       .  A
C80        C1156   1.488       .  S
O81          C87   1.272       .  A
O81         Cd84   2.486       .  S
C82          O90   1.265       .  A
C82        C1144   1.488       .  S
C83          O88   1.271       .  A
C83          O86   1.267       .  A
C83        C1105   1.487       .  S
Cd84         O91   2.422       .  S
Cd84         O90   2.434       .  S
Cd84         O88   2.478       .  S
Cd84         O86   2.401       .  S
Cd84       O1421   2.449   1_554  S
Cd84       O1417   2.469   1_554  S
O85       Cd1416   2.470       .  S
C87          O91   1.264       .  A
C87        C1120   1.490       .  S
O89       Cd1416   2.448       .  S
O92          C95   1.270       .  A
O92       Cd1429   2.481   1_554  S
C93         O102   1.265       .  A
C93          O98   1.269       .  A
C93        C1192   1.474       .  S
O94         C100   1.272       .  A
O94         Cd97   2.483       .  S
C95         O103   1.264       .  A
C95        C1180   1.482       .  S
C96         O101   1.270       .  A
C96          O99   1.265       .  A
C96        C1096   1.481       .  S
Cd97        O104   2.438       .  S
Cd97        O102   2.403       .  S
Cd97         O98   2.495       .  S
Cd97        O101   2.499       .  S
Cd97         O99   2.396       .  S
Cd97       O1424   2.479       .  S
Cd97       O1435   2.411       .  S
C100        O104   1.265       .  A
C100       C1117   1.492       .  S
O103      Cd1429   2.415   1_554  S
O105        C108   1.270       .  A
O105       Cd110   2.465       .  S
C106        O115   1.264       .  A
C106        O111   1.267       .  A
C106       C1081   1.487   1_655  S
O107        C113   1.269       .  A
O107      Cd1442   2.489       .  S
C108        O116   1.266       .  A
C108       C1045   1.484       .  S
C109        O114   1.270       .  A
C109        O112   1.264       .  A
C109       C1057   1.484       .  S
Cd110       O116   2.397       .  S
Cd110       O115   2.417       .  S
Cd110       O111   2.481       .  S
Cd110       O114   2.503       .  S
Cd110       O112   2.438       .  S
Cd110      O1439   2.488   1_554  S
Cd110      O1449   2.461   1_554  S
C113        O117   1.264       .  A
C113       C1072   1.488       .  S
O117      Cd1442   2.461       .  S
O118        C121   1.268       .  A
O118       Cd123   2.468       .  S
C119        O128   1.265       .  A
C119        O124   1.267       .  A
C119       C1084   1.489       .  S
O120        C126   1.270       .  A
O120       Cd123   2.504       .  S
C121        O129   1.267       .  A
C121       C1009   1.481       .  S
C122        O127   1.270       .  A
C122        O125   1.265       .  A
C122       C1021   1.485       .  S
Cd123       O130   2.427       .  S
Cd123       O129   2.428       .  S
Cd123       O128   2.459       .  S
Cd123       O124   2.455       .  S
Cd123      O1459   2.484       .  S
Cd123      O1457   2.428       .  S
O125      Cd1455   2.429   1_554  S
C126        O130   1.263       .  A
C126       C1033   1.481       .  S
O127      Cd1455   2.479   1_554  S
O131        C134   1.271       .  A
O131       Cd136   2.492       .  S
C132        O141   1.264       .  A
C132        O137   1.271       .  A
C132       C1036   1.488       .  S
O133        C139   1.269       .  A
O133       Cd136   2.469       .  S
C134        O142   1.264       .  A
C134       C1024   1.478       .  S
C135        O140   1.270       .  A
C135        O138   1.268       .  A
C135        C985   1.487       .  S
Cd136       O143   2.443       .  S
Cd136       O142   2.429       .  S
Cd136       O141   2.437       .  S
Cd136       O137   2.489       .  S
Cd136       O140   2.480       .  S
Cd136       O138   2.409       .  S
C139        O143   1.265       .  A
C139        C997   1.489       .  S
O144        C147   1.271       .  A
O144       Cd149   2.501       .  S
C145        O154   1.265       .  A
C145        O150   1.270       .  A
C145       C1069   1.490       .  S
O146        C152   1.269       .  A
O146       Cd149   2.483       .  S
C147        O155   1.264       .  A
C147       C1060   1.486       .  S
C148        O153   1.270       .  A
C148        O151   1.266       .  A
C148        C973   1.490       .  S
Cd149       O156   2.429       .  S
Cd149       O155   2.420       .  S
Cd149       O154   2.444       .  S
Cd149       O150   2.500       .  S
Cd149       O153   2.499       .  S
Cd149       O151   2.404       .  S
C152        O156   1.265       .  A
C152       C1000   1.489   1_655  S
O157        C160   1.271       .  A
O157       Cd162   2.508       .  S
C158        O167   1.265       .  A
C158        O163   1.270       .  A
C158        C940   1.486       .  S
O159        C165   1.269       .  A
O159       Cd162   2.490       .  S
C160        O168   1.264       .  A
C160        C952   1.480       .  S
C161        O166   1.271       .  A
C161        O164   1.265       .  A
C161       C1216   1.484       .  S
Cd162       O169   2.442       .  S
Cd162       O168   2.407       .  S
Cd162       O167   2.437       .  S
Cd162       O163   2.469       .  S
Cd162       O166   2.471       .  S
Cd162       O164   2.411       .  S
C165        O169   1.266       .  A
C165        C961   1.494       .  S
O170        C173   1.271       .  A
O170       Cd175   2.477       .  S
C171        O180   1.265       .  A
C171        O176   1.271       .  A
C171        C916   1.482       .  S
O172        C178   1.270       .  A
O172       Cd175   2.472       .  S
C173        O181   1.265       .  A
C173        C925   1.484       .  S
C174        O179   1.271       .  A
C174        O177   1.267       .  A
C174        C901   1.493       .  S
Cd175       O182   2.460       .  S
Cd175       O181   2.431       .  S
Cd175       O180   2.414       .  S
Cd175       O176   2.495       .  S
Cd175       O179   2.497       .  S
Cd175       O177   2.412       .  S
C178        O182   1.265       .  A
C178        C964   1.494       .  S
O183        C186   1.270       .  A
O183       Cd188   2.476       .  S
C184        O193   1.264       .  A
C184        O189   1.271       .  A
C184       C2269   1.477       .  S
O185        C191   1.269       .  A
O185       Cd188   2.462       .  S
C186        O194   1.264       .  A
C186        C949   1.484       .  S
C187        O192   1.271       .  A
C187        O190   1.266       .  A
C187       C1012   1.476       .  S
Cd188       O195   2.445       .  S
Cd188       O194   2.431       .  S
Cd188       O193   2.413       .  S
Cd188       O189   2.484       .  S
Cd188       O192   2.476       .  S
Cd188       O190   2.386       .  S
C191        O195   1.265       .  A
C191        C889   1.487       .  S
O196        C199   1.272       .  A
O196       Cd201   2.494       .  S
C197        O206   1.265       .  A
C197        O202   1.271       .  A
C197        C913   1.482       .  S
O198        C204   1.270       .  A
O198       Cd201   2.486       .  S
C199        O207   1.264       .  A
C199        C928   1.484       .  S
C200        O205   1.271       .  A
C200        O203   1.267       .  A
C200        C877   1.481       .  S
Cd201       O208   2.408       .  S
Cd201       O207   2.414       .  S
Cd201       O206   2.431       .  S
Cd201       O202   2.475       .  S
Cd201       O205   2.455       .  S
Cd201       O203   2.405       .  S
C204        O208   1.264       .  A
C204        C892   1.485       .  S
O209        C212   1.271       .  A
O209       Cd214   2.504       .  S
C210        O219   1.266       .  A
C210        O215   1.271       .  A
C210        C841   1.487       .  S
O211        C217   1.271       .  A
O211       Cd214   2.489       .  S
C212        O220   1.265       .  A
C212        C853   1.488       .  S
C213        O218   1.270       .  A
C213        O216   1.267       .  A
C213        C832   1.487       .  S
Cd214       O221   2.427       .  S
Cd214       O220   2.428       .  S
Cd214       O219   2.424       .  S
Cd214       O215   2.480       .  S
Cd214       O218   2.475       .  S
Cd214       O216   2.407       .  S
C217        O221   1.264       .  A
C217        C865   1.492       .  S
O222        C225   1.273       .  A
O222       Cd227   2.513       .  S
C223        O232   1.265       .  A
C223        O228   1.273       .  A
C223        C808   1.485       .  S
O224        C230   1.271       .  A
O224       Cd227   2.465       .  S
C225        O233   1.265       .  A
C225        C817   1.490       .  S
C226        O231   1.271       .  A
C226        O229   1.266       .  A
C226        C976   1.485       .  S
Cd227       O234   2.435       .  S
Cd227       O233   2.424       .  S
Cd227       O232   2.411       .  S
Cd227       O228   2.512       .  S
Cd227       O231   2.488       .  S
Cd227       O229   2.414       .  S
C230        O234   1.265       .  A
C230        C868   1.490       .  S
O235        C238   1.270       .  A
O235       Cd240   2.481       .  S
C236        O245   1.263       .  A
C236        O241   1.267       .  A
C236        C793   1.487       .  S
O237        C243   1.269       .  A
O237       Cd240   2.492       .  S
C238        O246   1.267       .  A
C238        C904   1.492   1_655  S
C239        O244   1.267       .  A
C239        O242   1.264       .  A
C239        C856   1.489       .  S
Cd240       O247   2.435       .  S
Cd240       O246   2.426       .  S
Cd240       O245   2.432       .  S
Cd240       O241   2.482       .  S
Cd240       O244   2.489       .  S
Cd240       O242   2.457       .  S
C243        O247   1.264       .  A
C243        C844   1.479       .  S
O248        C251   1.269       .  A
O248       Cd253   2.483       .  S
C249        O258   1.266       .  A
C249        O254   1.270       .  A
C249        C796   1.486       .  S
O250        C256   1.270       .  A
O250       Cd253   2.486       .  S
C251        O259   1.265       .  A
C251       C1108   1.485       .  S
C252        O255   1.263       .  A
C252       O1589   1.270       .  A
C252        C820   1.485       .  S
Cd253       O260   2.451       .  S
Cd253       O259   2.425       .  S
Cd253       O258   2.420       .  S
Cd253       O254   2.465       .  S
Cd253       O257   2.520       .  S
Cd253      O1587   2.430       .  S
O255      Cd1585   2.430       .  S
C256        O260   1.264       .  A
C256        C805   1.488       .  S
O257       C1584   1.270       .  A
O261        C264   1.272       .  A
O261       Cd266   2.486       .  S
C262        O271   1.264       .  A
C262        O267   1.272       .  A
C262        C772   1.488       .  S
O263        C269   1.271       .  A
O263       Cd266   2.476       .  S
C264        O272   1.266       .  A
C264        C757   1.492       .  S
C265        O270   1.270       .  A
C265        O268   1.265       .  A
C265        C781   1.484       .  S
Cd266       O273   2.384       .  S
Cd266       O272   2.429       .  S
Cd266       O271   2.428       .  S
Cd266       O267   2.506       .  S
Cd266       O270   2.474       .  S
Cd266       O268   2.410       .  S
C269        O273   1.266       .  A
C269        C829   1.479       .  S
O274        C277   1.270       .  A
O274       Cd279   2.479       .  S
C275        O284   1.263       .  A
C275        O280   1.271       .  A
C275       C2065   1.482       .  S
O276        C282   1.269       .  A
O276       Cd279   2.482       .  S
C277        O285   1.266       .  A
C277        C745   1.487       .  S
C278        O283   1.270       .  A
C278        O281   1.267       .  A
C278       C1288   1.486       .  S
Cd279       O286   2.437       .  S
Cd279       O285   2.442       .  S
Cd279       O284   2.413       .  S
Cd279       O280   2.507       .  S
Cd279       O283   2.481       .  S
Cd279       O281   2.431       .  S
C282        O286   1.264       .  A
C282        C784   1.487       .  S
O287        C290   1.270       .  A
O287       Cd292   2.475       .  S
C288        O297   1.263       .  A
C288        O293   1.269       .  A
C288        C721   1.490       .  S
O289        C295   1.270       .  A
O289       Cd292   2.502       .  S
C290        O298   1.267       .  A
C290       C1165   1.483       .  S
C291        O296   1.270       .  A
C291        O294   1.263       .  A
C291        C748   1.483       .  S
Cd292       O299   2.435       .  S
Cd292       O298   2.425       .  S
Cd292       O297   2.444       .  S
Cd292       O293   2.483       .  S
Cd292       O296   2.500       .  S
Cd292       O294   2.416       .  S
C295        O299   1.264       .  A
C295        C736   1.486       .  S
O300        C303   1.271       .  A
O300       Cd305   2.486       .  S
C301        O310   1.262       .  A
C301        O306   1.271       .  A
C301        C724   1.493       .  S
O302        C308   1.270       .  A
O302       Cd305   2.500       .  S
C303        O311   1.268       .  A
C303        C712   1.495       .  S
C304        O309   1.270       .  A
C304        O307   1.265       .  A
C304        C769   1.486       .  S
Cd305       O312   2.434       .  S
Cd305       O311   2.449       .  S
Cd305       O310   2.444       .  S
Cd305       O306   2.496       .  S
Cd305       O309   2.485       .  S
Cd305       O307   2.451       .  S
C308        O312   1.264       .  A
C308        C760   1.478       .  S
O313       C1648   1.270   1_554  A
O313       Cd318   2.477       .  S
C314        O323   1.265       .  A
C314        O319   1.270       .  A
C314        C673   1.484       .  S
O315        C321   1.271       .  A
O315       Cd318   2.502       .  S
C316       O1645   1.270       .  A
C316       O1656   1.266       .  A
C316        C688   1.491       .  S
C317        O322   1.272       .  A
C317        O320   1.265       .  A
C317       C1249   1.484       .  S
Cd318       O325   2.435       .  S
Cd318       O324   2.452   1_554  S
Cd318       O323   2.431       .  S
Cd318       O319   2.491       .  S
Cd318       O322   2.487       .  S
Cd318       O320   2.402       .  S
C321        O325   1.263       .  A
C321        C700   1.494       .  S
O324       C1648   1.266       .  A
O326        C329   1.271       .  A
O326       Cd331   2.467       .  S
C327        O336   1.265       .  A
C327        O332   1.271       .  A
C327        C649   1.487       .  S
O328        C334   1.271       .  A
O328       Cd331   2.495       .  S
C329        O337   1.265       .  A
C329        C664   1.479       .  S
C330        O335   1.271       .  A
C330        O333   1.267       .  A
C330        C640   1.486       .  S
Cd331       O338   2.422       .  S
Cd331       O337   2.453       .  S
Cd331       O336   2.422       .  S
Cd331       O332   2.512       .  S
Cd331       O335   2.477       .  S
Cd331       O333   2.401       .  S
C334        O338   1.263       .  A
C334        C697   1.493       .  S
O339        C342   1.269       .  A
O339       Cd344   2.471       .  S
C340        O349   1.265       .  A
C340        O345   1.268       .  A
C340        C628   1.488       .  S
O341        C347   1.270       .  A
O341       Cd344   2.489       .  S
C342        O350   1.266       .  A
C342        C880   1.482       .  S
C343        O348   1.270       .  A
C343        O346   1.264       .  A
C343        C661   1.487       .  S
Cd344       O351   2.437       .  S
Cd344       O350   2.414       .  S
Cd344       O349   2.437       .  S
Cd344       O345   2.468       .  S
Cd344       O348   2.502       .  S
Cd344       O346   2.429       .  S
C347        O351   1.264       .  A
C347        C652   1.485       .  S
O352        C355   1.268       .  A
O352       Cd357   2.454       .  S
C353        O362   1.264       .  A
C353        O358   1.267       .  A
C353        C625   1.487       .  S
O354        C360   1.269       .  A
O354       Cd357   2.504       .  S
C355        O363   1.269       .  A
C355       C1129   1.489       .  S
C356        O361   1.269       .  A
C356        O359   1.264       .  A
C356        C685   1.481       .  S
Cd357       O364   2.435       .  S
Cd357       O363   2.436       .  S
Cd357       O362   2.441       .  S
Cd357       O358   2.479       .  S
Cd357       O361   2.484       .  S
Cd357       O359   2.434       .  S
C360        O364   1.264       .  A
C360        C676   1.485       .  S
O365        C368   1.270       .  A
O365       Cd370   2.479       .  S
C366        O375   1.265       .  A
C366        O371   1.271       .  A
C366        C589   1.484       .  S
O367        C373   1.270       .  A
O367       Cd370   2.499       .  S
C368        O376   1.265       .  A
C368        C601   1.485       .  S
C369        O374   1.271       .  A
C369        O372   1.267       .  A
C369       C1228   1.490       .  S
Cd370       O377   2.443       .  S
Cd370       O376   2.434       .  S
Cd370       O375   2.415       .  S
Cd370       O371   2.507       .  S
Cd370       O374   2.474       .  S
Cd370       O372   2.440       .  S
C373        O377   1.264       .  A
C373        C613   1.493       .  S
O378        C381   1.272       .  A
O378       Cd383   2.479       .  S
C379        O388   1.266       .  A
C379        O384   1.272       .  A
C379        C568   1.488       .  S
O380        C386   1.271       .  A
O380       Cd383   2.493       .  S
C381        O389   1.266       .  A
C381        C577   1.481       .  S
C382        O387   1.274       .  A
C382        O385   1.265       .  A
C382        C553   1.489       .  S
Cd383       O390   2.450       .  S
Cd383       O389   2.413       .  S
Cd383       O388   2.411       .  S
Cd383       O384   2.481       .  S
Cd383       O387   2.483       .  S
Cd383       O385   2.404       .  S
C386        O390   1.266       .  A
C386        C616   1.494       .  S
O391       C1726   1.270       .  A
O391       Cd396   2.497       .  S
C392        O401   1.266       .  A
C392        O397   1.269       .  A
C392        C592   1.488       .  S
O393        C399   1.269       .  A
O393       Cd396   2.472       .  S
C394       O1723   1.270       .  A
C394       O1734   1.265       .  A
C394        C604   1.481       .  S
C395        O400   1.270       .  A
C395        O398   1.266       .  A
C395       C1048   1.485       .  S
Cd396       O403   2.441       .  S
Cd396       O402   2.430       .  S
Cd396       O401   2.456       .  S
Cd396       O397   2.465       .  S
Cd396       O400   2.486       .  S
Cd396       O398   2.388       .  S
C399        O403   1.265       .  A
C399        C544   1.490       .  S
O402       C1726   1.264       .  A
O404        C407   1.271       .  A
O404       Cd409   2.485       .  S
C405        O414   1.264       .  A
C405        O410   1.270       .  A
C405        C565   1.473       .  S
O406        C412   1.270       .  A
O406       Cd409   2.482       .  S
C407        O415   1.264       .  A
C407        C580   1.480       .  S
C408        O413   1.271       .  A
C408        O411   1.268       .  A
C408        C709   1.493       .  S
Cd409       O416   2.435       .  S
Cd409       O415   2.415       .  S
Cd409       O414   2.422       .  S
Cd409       O410   2.479       .  S
Cd409       O413   2.472       .  S
Cd409       O411   2.432       .  S
C412        O416   1.264       .  A
C412        C541   1.490       .  S
O417        C420   1.271       .  A
O417       Cd422   2.481       .  S
C418        O427   1.264       .  A
C418        O423   1.272       .  A
C418        C505   1.479       .  S
O419        C425   1.272       .  A
O419       Cd422   2.462       .  S
C420        O428   1.265       .  A
C420        C517   1.481       .  S
C421        O426   1.273       .  A
C421        O424   1.265       .  A
C421        C988   1.491       .  S
Cd422       O429   2.446       .  S
Cd422       O428   2.411       .  S
Cd422       O427   2.402       .  S
Cd422       O423   2.483       .  S
Cd422       O426   2.504       .  S
Cd422       O424   2.397       .  S
C425        O429   1.264       .  A
C425        C532   1.490       .  S
O430        C433   1.271       .  A
O430       Cd435   2.482       .  S
C431        O440   1.264       .  A
C431        O436   1.271       .  A
C431        C481   1.483       .  S
O432        C438   1.270       .  A
O432       Cd435   2.495       .  S
C433        O441   1.265       .  A
C433        C493   1.489       .  S
C434        O439   1.271       .  A
C434        O437   1.266       .  A
C434        C637   1.481       .  S
Cd435       O442   2.409       .  S
Cd435       O441   2.440       .  S
Cd435       O440   2.425       .  S
Cd435       O436   2.499       .  S
Cd435       O439   2.469       .  S
Cd435       O437   2.402       .  S
C438        O442   1.263       .  A
C438        C529   1.490       .  S
O443        C446   1.270       .  A
O443       Cd448   2.475       .  S
C444        O453   1.264       .  A
C444        O449   1.269       .  A
C444        C472   1.484       .  S
O445        C451   1.270       .  A
O445       Cd448   2.493       .  S
C446        O454   1.267       .  A
C446       C1093   1.483       .  S
C447        O452   1.271       .  A
C447        O450   1.264       .  A
C447        C520   1.480       .  S
Cd448       O455   2.420       .  S
Cd448       O454   2.418       .  S
Cd448       O453   2.442       .  S
Cd448       O449   2.463       .  S
Cd448       O452   2.486       .  S
Cd448       O450   2.417       .  S
C451        O455   1.263       .  A
C451       C1840   1.480       .  S
O456        C459   1.268       .  A
O456       Cd461   2.462       .  S
C457        O466   1.262       .  A
C457        O462   1.267       .  A
C457        C469   1.482       .  S
O458        C464   1.270       .  A
O458       Cd461   2.490       .  S
C459        O467   1.269       .  A
C459        C556   1.487       .  S
C460        O465   1.269       .  A
C460        O463   1.263       .  A
C460        C496   1.481       .  S
Cd461       O468   2.444       .  S
Cd461       O467   2.416       .  S
Cd461       O466   2.422       .  S
Cd461       O462   2.475       .  S
Cd461       O465   2.516       .  S
Cd461       O463   2.430       .  S
C464        O468   1.264       .  A
C464        C484   1.486       .  S
C469        C470   1.403       .  A
C469        C474   1.416       .  A
C470        C471   1.401       .  A
C470        H475   1.085       .  S
C471        C472   1.417       .  A
C471        C478   1.445       .  S
C472        C473   1.403       .  A
C473        C474   1.398       .  A
C473        H476   1.085       .  S
C474        C477   1.445       .  S
C477        N479   1.157       .  T
C478        N480   1.157       .  T
C481        C482   1.402       .  A
C481        C486   1.414       .  A
C482       C1815   1.404       .  A
C482        H487   1.085       .  S
C483        C484   1.416       .  A
C483       C1814   1.404       .  A
C483        C490   1.444       .  S
C484       C1817   1.403       .  A
C485        C486   1.401       .  A
C485       C1816   1.404   1_554  A
C485       H1820   1.085   1_554  S
C486        C489   1.445       .  S
H488       C1817   1.085       .  S
C489        N491   1.157       .  T
C490        N492   1.157       .  T
C493        C494   1.405       .  A
C493        C498   1.419       .  A
C494        C495   1.401       .  A
C494        H499   1.084       .  S
C495        C496   1.412       .  A
C495        C502   1.445       .  S
C496        C497   1.402       .  A
C497        C498   1.404       .  A
C497        H500   1.085       .  S
C498        C501   1.444       .  S
C501        N503   1.157       .  T
C502        N504   1.157       .  T
C505        C506   1.402       .  A
C505        C510   1.415       .  A
C506        C507   1.400       .  A
C506        H511   1.085       .  S
C507        C508   1.415       .  A
C507        C514   1.445       .  S
C508       C1783   1.480       .  S
C508        C509   1.402       .  A
C509        C510   1.401       .  A
C509        H512   1.085       .  S
C510        C513   1.445       .  S
C513        N515   1.157       .  T
C514        N516   1.157       .  T
C517        C518   1.402       .  A
C517        C522   1.415       .  A
C518        C519   1.401       .  A
C518        H523   1.085       .  S
C519        C520   1.414       .  A
C519        C526   1.444       .  S
C520        C521   1.403       .  A
C521        C522   1.401       .  A
C521        H524   1.085       .  S
C522        C525   1.445       .  S
C525        N527   1.157       .  T
C526        N528   1.157       .  T
C529        C530   1.405       .  A
C529        C534   1.418       .  A
C530        C531   1.404       .  A
C530        H535   1.085       .  S
C531        C532   1.420       .  A
C531        C538   1.445       .  S
C532        C533   1.402       .  A
C533        C534   1.397       .  A
C533        H536   1.085       .  S
C534        C537   1.444       .  S
C537        N539   1.157       .  T
C538        N540   1.158       .  T
C541        C542   1.408       .  A
C541        C546   1.413       .  A
C542        C543   1.401       .  A
C542        H547   1.085       .  S
C543        C544   1.414       .  A
C543        C550   1.444       .  S
C544        C545   1.408       .  A
C545        C546   1.402       .  A
C545        H548   1.085       .  S
C546        C549   1.444       .  S
C549        N551   1.157       .  T
C550        N552   1.157       .  T
C553        C554   1.406   1_655  A
C553        C558   1.418   1_655  A
C554        C555   1.404       .  A
C554        H559   1.084       .  S
C555        C556   1.417       .  A
C555        C562   1.444       .  S
C556        C557   1.403       .  A
C557        C558   1.395       .  A
C557        H560   1.085       .  S
C558        C561   1.445   1_455  S
C561        N563   1.157       .  T
C562        N564   1.157       .  T
C565        C566   1.403       .  A
C565        C570   1.406       .  A
C566        C567   1.402       .  A
C566        H571   1.085       .  S
C567        C568   1.415       .  A
C567        C574   1.444       .  S
C568        C569   1.410       .  A
C569        C570   1.398       .  A
C569        H572   1.084       .  S
C570        C573   1.445       .  S
C573        N575   1.157       .  T
C574        N576   1.157       .  T
C577        C578   1.402       .  A
C577        C582   1.417       .  A
C578        C579   1.401       .  A
C578        H583   1.085       .  S
C579       C1912   1.414       .  A
C579       C1918   1.444       .  S
C580        C581   1.402   1_554  A
C580       C1911   1.414   1_554  A
C581       C1914   1.400       .  A
C581        H584   1.085   1_556  S
C582       C1913   1.400       .  A
C582        C585   1.445       .  S
C585        N587   1.158       .  T
C586       C1911   1.444       .  S
C586        N588   1.157       .  T
C589        C590   1.404       .  A
C589        C594   1.412       .  A
C590        C591   1.398       .  A
C590        H595   1.085       .  S
C591        C592   1.414       .  A
C591        C598   1.444       .  S
C592        C593   1.409       .  A
C593        C594   1.405       .  A
C593        H596   1.085       .  S
C594        C597   1.444       .  S
C597        N599   1.157       .  T
C598        N600   1.157       .  T
C601        C602   1.408       .  A
C601        C606   1.414       .  A
C602        C603   1.403       .  A
C602        H607   1.084       .  S
C603        C604   1.410       .  A
C603        C610   1.444       .  S
C604        C605   1.405       .  A
C605        C606   1.400       .  A
C605        H608   1.085       .  S
C606        C609   1.444       .  S
C609        N611   1.157       .  T
C610        N612   1.157       .  T
C613        C614   1.408       .  A
C613        C618   1.414       .  A
C614        C615   1.403       .  A
C614        H619   1.085       .  S
C615        C616   1.414       .  A
C615        C622   1.444       .  S
C616        C617   1.409       .  A
C617        C618   1.404       .  A
C617        H620   1.085       .  S
C618        C621   1.444       .  S
C621        N623   1.157       .  T
C622        N624   1.157       .  T
C625        C626   1.407       .  A
C625        C630   1.413       .  A
C626        C627   1.400       .  A
C626        H631   1.085       .  S
C627        C628   1.414       .  A
C627        C634   1.444       .  S
C628        C629   1.408       .  A
C629        C630   1.400       .  A
C629        H632   1.085       .  S
C630        C633   1.444       .  S
C633        N635   1.157       .  T
C634        N636   1.157       .  T
C637        C638   1.404       .  A
C637        C642   1.414       .  A
C638        C639   1.403       .  A
C638        H643   1.085       .  S
C639        C640   1.416       .  A
C639        C646   1.443       .  S
C640        C641   1.405       .  A
C641        C642   1.395       .  A
C641        H644   1.085       .  S
C642        C645   1.446       .  S
C645        N647   1.157       .  T
C646        N648   1.157       .  T
C649        C650   1.404       .  A
C649        C654   1.416       .  A
C650        C651   1.405       .  A
C650        H655   1.084       .  S
C651        C652   1.415       .  A
C651        C658   1.444       .  S
C652        C653   1.402       .  A
C653        C654   1.400       .  A
C653        H656   1.085       .  S
C654        C657   1.445       .  S
C657        N659   1.157       .  T
C658        N660   1.157       .  T
C661        C662   1.406       .  A
C661        C666   1.417       .  A
C662        C663   1.405       .  A
C662        H667   1.085       .  S
C663       C1996   1.414       .  A
C663        C670   1.444       .  S
C664        C665   1.400   1_554  A
C664       C1995   1.413   1_554  A
C665       C1998   1.398       .  A
C665        H668   1.086   1_556  S
C666       C1997   1.399       .  A
C666        C669   1.445       .  S
C669        N671   1.157       .  T
C670       N2004   1.157       .  T
N672       C2002   1.157       .  T
C673        C674   1.407       .  A
C673        C678   1.412       .  A
C674        C675   1.402       .  A
C674        H679   1.085       .  S
C675        C676   1.411       .  A
C675        C682   1.444       .  S
C676        C677   1.407       .  A
C677        C678   1.402       .  A
C677        H680   1.085       .  S
C678        C681   1.444       .  S
C681        N683   1.157       .  T
C682        N684   1.157       .  T
C685        C686   1.403       .  A
C685        C690   1.412       .  A
C686        C687   1.401       .  A
C686        H691   1.085       .  S
C687        C688   1.415       .  A
C687        C694   1.443       .  S
C688        C689   1.410       .  A
C689        C690   1.403       .  A
C689        H692   1.084       .  S
C690        C693   1.445       .  S
C693        N695   1.158       .  T
C694        N696   1.157       .  T
C697        C698   1.404       .  A
C697        C702   1.419       .  A
C698        C699   1.403       .  A
C698        H703   1.085       .  S
C699        C700   1.420       .  A
C699        C706   1.445       .  S
C700        C701   1.404       .  A
C701        C702   1.402       .  A
C701        H704   1.085       .  S
C702        C705   1.445       .  S
C705        N707   1.157       .  T
C706        N708   1.157       .  T
C709        C710   1.406       .  A
C709        C714   1.416       .  A
C710        C711   1.400       .  A
C710        H715   1.085       .  S
C711        C712   1.417   1_545  A
C711        C718   1.445   1_545  S
C712        C713   1.407   1_565  A
C713        C714   1.406       .  A
C713        H716   1.084   1_545  S
C714        C717   1.444       .  S
C717        N719   1.157       .  T
C718        N720   1.157       .  T
C721        C722   1.403       .  A
C721        C726   1.417       .  A
C722        C723   1.401       .  A
C722        H727   1.085       .  S
C723        C724   1.420       .  A
C723        C730   1.444       .  S
C724        C725   1.405       .  A
C725        C726   1.402       .  A
C725        H728   1.084       .  S
C726        C729   1.444       .  S
C729        N731   1.157       .  T
C730        N732   1.157       .  T
C733       C1607   1.481   1_554  S
C733        C734   1.401       .  A
C733        C738   1.414       .  A
C734        C735   1.403       .  A
C734        H739   1.085       .  S
C735        C736   1.417       .  A
C735        C742   1.444       .  S
C736        C737   1.404       .  A
C737        C738   1.401       .  A
C737        H740   1.085       .  S
C738        C741   1.446       .  S
C741        N743   1.157       .  T
C742        N744   1.157       .  T
C745        C746   1.408       .  A
C745        C750   1.413       .  A
C746        C747   1.403       .  A
C746        H751   1.085       .  S
C747        C748   1.411       .  A
C747        C754   1.444       .  S
C748        C749   1.406       .  A
C749        C750   1.400       .  A
C749        H752   1.085       .  S
C750        C753   1.444       .  S
C753        N755   1.157       .  T
C754        N756   1.157       .  T
C757       C2090   1.410       .  A
C757       C2094   1.415       .  A
C758        C759   1.401       .  A
C758       C2089   1.410   1_554  A
C758       H2095   1.084       .  S
C759        C760   1.408       .  A
C759        C766   1.444       .  S
C760        C761   1.403       .  A
C761        C762   1.403   1_554  A
C761        H764   1.085       .  S
C762       C2089   1.416       .  A
C762       C2097   1.443       .  S
H763       C2090   1.084       .  S
C765       C2094   1.443       .  S
C765        N767   1.157       .  T
C766        N768   1.157       .  T
C769        C770   1.403       .  A
C769        C774   1.415       .  A
C770        C771   1.401       .  A
C770        H775   1.085       .  S
C771        C772   1.417       .  A
C771        C778   1.445       .  S
C772        C773   1.404       .  A
C773        C774   1.405       .  A
C773        H776   1.084       .  S
C774        C777   1.444       .  S
C777        N779   1.157       .  T
C778        N780   1.157       .  T
C781        C782   1.407       .  A
C781        C786   1.412       .  A
C782        C783   1.398       .  A
C782        H787   1.085       .  S
C783        C784   1.412       .  A
C783        C790   1.444       .  S
C784        C785   1.409       .  A
C785        C786   1.401       .  A
C785        H788   1.085       .  S
C786        C789   1.444       .  S
C789        N791   1.157       .  T
C790       N2124   1.157       .  T
N792       C2122   1.157       .  T
C793        C794   1.408       .  A
C793        C798   1.413       .  A
C794        C795   1.400       .  A
C794        H799   1.085       .  S
C795        C796   1.413       .  A
C795        C802   1.444       .  S
C796        C797   1.408       .  A
C797        C798   1.400       .  A
C797        H800   1.085       .  S
C798        C801   1.444       .  S
C801        N803   1.157       .  T
C802        N804   1.157       .  T
C805        C806   1.403       .  A
C805        C810   1.417       .  A
C806        C807   1.400       .  A
C806        H811   1.085       .  S
C807        C808   1.415       .  A
C807        C814   1.445       .  S
C808        C809   1.403       .  A
C809        C810   1.406       .  A
C809        H812   1.084       .  S
C810        C813   1.444       .  S
C813        N815   1.157       .  T
C814        N816   1.157       .  T
C817        C818   1.407       .  A
C817        C822   1.417       .  A
C818        C819   1.409       .  A
C818        H823   1.084       .  S
C819        C820   1.413       .  A
C819        C826   1.443       .  S
C820        C821   1.402       .  A
C821        C822   1.399       .  A
C821        H824   1.085       .  S
C822        C825   1.446       .  S
C825        N827   1.158       .  T
C826        N828   1.157       .  T
C829        C830   1.404       .  A
C829        C834   1.413       .  A
C830        C831   1.405       .  A
C830        H835   1.085       .  S
C831        C832   1.417       .  A
C831        C838   1.443       .  S
C832        C833   1.405       .  A
C833        C834   1.393       .  A
C833        H836   1.085       .  S
C834        C837   1.446       .  S
C837        N839   1.157       .  T
C838        N840   1.157       .  T
C841        C842   1.408       .  A
C841        C846   1.415       .  A
C842        C843   1.401       .  A
C842        H847   1.085       .  S
C843        C844   1.409       .  A
C843        C850   1.444       .  S
C844        C845   1.404       .  A
C845        C846   1.402       .  A
C845        H848   1.085       .  S
C846        C849   1.444       .  S
C849        N851   1.157       .  T
C850        N852   1.157       .  T
C853        C854   1.406       .  A
C853        C858   1.412       .  A
C854       C2187   1.401       .  A
C854        H859   1.085       .  S
C855        C856   1.415   1_556  A
C855       C2186   1.401       .  A
C855        C862   1.444   1_556  S
C856       C2189   1.408   1_554  A
C857        C858   1.405       .  A
C857       C2188   1.408       .  A
C857        H860   1.085       .  S
C858        C861   1.443       .  S
C861        N863   1.157       .  T
C862        N864   1.157       .  T
C865        C866   1.405       .  A
C865        C870   1.418       .  A
C866        C867   1.403       .  A
C866        H871   1.085       .  S
C867        C868   1.418       .  A
C867        C874   1.445       .  S
C868        C869   1.403       .  A
C869        C870   1.400       .  A
C869        H872   1.085       .  S
C870        C873   1.444       .  S
C873        N875   1.157       .  T
C874        N876   1.158       .  T
C877        C878   1.403   1_565  A
C877        C882   1.414   1_565  A
C878        C879   1.395       .  A
C878        H883   1.085   1_545  S
C879        C880   1.414       .  A
C879        C886   1.445       .  S
C880        C881   1.406       .  A
C881        C882   1.403       .  A
C881        H884   1.084       .  S
C882        C885   1.444   1_545  S
C885        N887   1.157       .  T
C886        N888   1.157       .  T
C889        C890   1.409       .  A
C889        C894   1.413       .  A
C890        C891   1.403       .  A
C890        H895   1.085       .  S
C891        C892   1.413       .  A
C891        C898   1.444       .  S
C892        C893   1.406       .  A
C893        C894   1.397       .  A
C893        H896   1.085       .  S
C894        C897   1.444       .  S
C897        N899   1.157       .  T
C898        N900   1.157       .  T
C901        C902   1.406       .  A
C901        C906   1.416       .  A
C902        C903   1.397       .  A
C902        H907   1.085       .  S
C903        C904   1.416       .  A
C903        C910   1.445       .  S
C904        C905   1.408       .  A
C905        C906   1.407       .  A
C905        H908   1.084       .  S
C906        C909   1.444       .  S
C909        N911   1.157       .  T
C910        N912   1.157   1_455  T
C913        C914   1.402       .  A
C913       C2250   1.416       .  A
C914       C2247   1.399       .  A
C914        H919   1.085       .  S
C915        C916   1.415       .  A
C915       C2246   1.399   1_554  A
C915        C922   1.445       .  S
C916        C917   1.402       .  A
C917        C918   1.403       .  A
C917        H920   1.085       .  S
C918       C2245   1.416   1_554  A
C918       C2253   1.444       .  S
C921       C2250   1.444       .  S
C921        N923   1.157       .  T
C922        N924   1.157       .  T
C925        C926   1.403       .  A
C925        C930   1.416       .  A
C926        C927   1.400       .  A
C926        H931   1.085       .  S
C927        C928   1.416       .  A
C927        C934   1.445       .  S
C928        C929   1.403       .  A
C929        C930   1.403       .  A
C929        H932   1.085       .  S
C930        C933   1.444       .  S
C933        N935   1.157       .  T
C934        N936   1.157       .  T
C937       C1516   1.479   1_554  S
C937        C938   1.404       .  A
C937        C942   1.409       .  A
C938        C939   1.399       .  A
C938        H943   1.085       .  S
C939        C940   1.414       .  A
C939        C946   1.444       .  S
C940        C941   1.409       .  A
C941        C942   1.403       .  A
C941        H944   1.084       .  S
C942        C945   1.444       .  S
C945        N947   1.157   1_554  T
C946        N948   1.157       .  T
C949        C950   1.402       .  A
C949        C954   1.417       .  A
C950        C951   1.398       .  A
C950        H955   1.085       .  S
C951        C952   1.413       .  A
C951        C958   1.445       .  S
C952        C953   1.402       .  A
C953        C954   1.404       .  A
C953        H956   1.084       .  S
C954        C957   1.444       .  S
C957        N959   1.157       .  T
C958        N960   1.157       .  T
C961        C962   1.407       .  A
C961        C966   1.415       .  A
C962        C963   1.401       .  A
C962        H967   1.085       .  S
C963        C964   1.414       .  A
C963        C970   1.444       .  S
C964        C965   1.410       .  A
C965        C966   1.405       .  A
C965        H968   1.085       .  S
C966        C969   1.444       .  S
C969        N971   1.158       .  T
C970        N972   1.157       .  T
C973        C974   1.405       .  A
C973        C978   1.417       .  A
C974        C975   1.394       .  A
C974        H979   1.085       .  S
C975        C976   1.413       .  A
C975        C982   1.445       .  S
C976        C977   1.406       .  A
C977        C978   1.407       .  A
C977        H980   1.085       .  S
C978        C981   1.443       .  S
C981        N983   1.157       .  T
C982        N984   1.157       .  T
C985        C986   1.403       .  A
C985        C990   1.415       .  A
C986        C987   1.395       .  A
C986        H991   1.085       .  S
C987        C988   1.417       .  A
C987        C994   1.445       .  S
C988        C989   1.408       .  A
C989        C990   1.408       .  A
C989        H992   1.084       .  S
C990        C993   1.444       .  S
C993        N995   1.157       .  T
C994        N996   1.157       .  T
C997        C998   1.408       .  A
C997       C1002   1.414       .  A
C998        C999   1.402       .  A
C998       H1003   1.085       .  S
C999       C1000   1.415       .  A
C999       C1006   1.444       .  S
C1000      C1001   1.407       .  A
C1001      C1002   1.399       .  A
C1001      H1004   1.085   1_455  S
C1002      C1005   1.444       .  S
C1005      N1007   1.157       .  T
C1006      N1008   1.157       .  T
C1009      C1010   1.403       .  A
C1009      C1014   1.416       .  A
C1010      C1011   1.395       .  A
C1010      H1015   1.085       .  S
C1011      C1012   1.412       .  A
C1011      C1018   1.446       .  S
C1012      C1013   1.403       .  A
C1013      C1014   1.404       .  A
C1013      H1016   1.085       .  S
C1014      C1017   1.443       .  S
C1017      N1019   1.157       .  T
C1018      N1020   1.157       .  T
C1021      C1022   1.408       .  A
C1021      C1026   1.414       .  A
C1022      C1023   1.402       .  A
C1022      H1027   1.085       .  S
C1023      C1024   1.408       .  A
C1023      C1030   1.444       .  S
C1024      C1025   1.404       .  A
C1025      C1026   1.402       .  A
C1025      H1028   1.085       .  S
C1026      C1029   1.444       .  S
C1029      N1031   1.157       .  T
C1030      N1032   1.157       .  T
C1033      C1034   1.401       .  A
C1033      C1038   1.414       .  A
C1034      C1035   1.403       .  A
C1034      H1039   1.085       .  S
C1035      C1036   1.419       .  A
C1035      C1042   1.444       .  S
C1036      C1037   1.404       .  A
C1037      C1038   1.401       .  A
C1037      H1040   1.085       .  S
C1038      C1041   1.445       .  S
C1041      N1043   1.157       .  T
C1042      N1044   1.157       .  T
C1045      C1046   1.408       .  A
C1045      C1050   1.414       .  A
C1046      C1047   1.405       .  A
C1046      H1051   1.084       .  S
C1047      C1048   1.415       .  A
C1047      C1054   1.444       .  S
C1048      C1049   1.404       .  A
C1049      C1050   1.392       .  A
C1049      H1052   1.085       .  S
C1050      C1053   1.445       .  S
C1053      N2387   1.157       .  T
C1054      N1056   1.158       .  T
N1055      C2385   1.157       .  T
C1057      C1058   1.402       .  A
C1057      C1062   1.415       .  A
C1058      C1059   1.402       .  A
C1058      H1063   1.085       .  S
C1059      C1060   1.416       .  A
C1059      C1066   1.444       .  S
C1060      C1061   1.404       .  A
C1061      C1062   1.403       .  A
C1061      H1064   1.085       .  S
C1062      C1065   1.445       .  S
C1065      N1067   1.157       .  T
C1066      N1068   1.157       .  T
C1069      C1070   1.406       .  A
C1069      C1074   1.414       .  A
C1070      C1071   1.401       .  A
C1070      H1075   1.085       .  S
C1071      C1072   1.413       .  A
C1071      C1078   1.444       .  S
C1072      C1073   1.408       .  A
C1073      C1074   1.406       .  A
C1073      H1076   1.085       .  S
C1074      C1077   1.444       .  S
C1077      N1079   1.157       .  T
C1078      N1080   1.157       .  T
C1081      C1086   1.414       .  A
C1081      C2414   1.406       .  A
C1082      C1083   1.396       .  A
C1082      C2413   1.405       .  A
C1082      H1087   1.085   1_455  S
C1083      C1084   1.414       .  A
C1083      C1090   1.444       .  S
C1084      C2417   1.409       .  A
C1085      C1086   1.403   1_556  A
C1085      C2416   1.409       .  A
C1085      H1088   1.084       .  S
C1086      C1089   1.444       .  S
C1089      N1091   1.158       .  T
C1090      N1092   1.157       .  T
C1093      C1094   1.408       .  A
C1093      C1098   1.413       .  A
C1094      C1095   1.405       .  A
C1094      H1099   1.085       .  S
C1095      C1096   1.413       .  A
C1095      C1102   1.443       .  S
C1096      C1097   1.404       .  A
C1097      C1098   1.394       .  A
C1097      H1100   1.085       .  S
C1098      C1101   1.445       .  S
C1101      N1103   1.157       .  T
C1102      N1104   1.157       .  T
C1105      C1106   1.404       .  A
C1105      C1110   1.416       .  A
C1106      C1107   1.395       .  A
C1106      H2443   1.085       .  S
C1107      C1108   1.414       .  A
C1107      C2446   1.444       .  S
C1108      C1109   1.406       .  A
C1109      C1110   1.405       .  A
C1109      H1112   1.085       .  S
C1110      C1113   1.443       .  S
H1111      C2438   1.085       .  S
C1113      N1115   1.157       .  T
C1114      C2439   1.445       .  S
C1114      N1116   1.157       .  T
C1117      C1122   1.419       .  A
C1117      C2450   1.404       .  A
C1118      C1119   1.401       .  A
C1118      C2449   1.404   1_554  A
C1118      H1123   1.084       .  S
C1119      C1120   1.418       .  A
C1119      C1126   1.445       .  S
C1120      C2453   1.404       .  A
C1121      C1122   1.403       .  A
C1121      C2452   1.404       .  A
C1121      H1124   1.084       .  S
C1122      C1125   1.444       .  S
C1125      N1127   1.157       .  T
C1126      N1128   1.157       .  T
C1129      C1130   1.405       .  A
C1129      C1134   1.417       .  A
C1130      C1131   1.398       .  A
C1130      H1135   1.085       .  S
C1131      C1132   1.417       .  A
C1131      C1138   1.445       .  S
C1132      C1133   1.405       .  A
C1133      C1134   1.403       .  A
C1133      H1136   1.084       .  S
C1134      C1137   1.444       .  S
C1137      N1139   1.157       .  T
C1138      N1140   1.157       .  T
C1141      C1142   1.407       .  A
C1141      C1146   1.414       .  A
C1142      C1143   1.404       .  A
C1142      H1147   1.085       .  S
C1143      C1144   1.412       .  A
C1143      C1150   1.443       .  S
C1144      C1145   1.406       .  A
C1145      C1146   1.402       .  A
C1145      H1148   1.085       .  S
C1146      C1149   1.445       .  S
C1149      N1151   1.158       .  T
C1150      N1152   1.157       .  T
C1153      C1154   1.404       .  A
C1153      C1158   1.410       .  A
C1154      C1155   1.401       .  A
C1154      H1159   1.085       .  S
C1155      C1156   1.414       .  A
C1155      C1162   1.444       .  S
C1156      C1157   1.409       .  A
C1157      C1158   1.404       .  A
C1157      H1160   1.084       .  S
C1158      C1161   1.444       .  S
C1161      N1163   1.157       .  T
C1162      N1164   1.157       .  T
C1165      C1166   1.404       .  A
C1165      C1170   1.414       .  A
C1166      C1167   1.404       .  A
C1166      H1171   1.085       .  S
C1167      C1168   1.416       .  A
C1167      C1174   1.443       .  S
C1168      C1169   1.405       .  A
C1169      C1170   1.398       .  A
C1169      H1172   1.085       .  S
C1170      C1173   1.446       .  S
C1173      N1175   1.157       .  T
C1174      N1176   1.157       .  T
C1177      C1178   1.402       .  A
C1177      C1182   1.416       .  A
C1178      C1179   1.403       .  A
C1178      H1183   1.085       .  S
C1179      C1180   1.416       .  A
C1179      C1186   1.444       .  S
C1180      C1181   1.402       .  A
C1181      C1182   1.399       .  A
C1181      H1184   1.085       .  S
C1182      C1185   1.446       .  S
C1185      N1187   1.157       .  T
C1186      N1188   1.157       .  T
C1189      C1190   1.406       .  A
C1189      C1194   1.416       .  A
C1190      C1191   1.407       .  A
C1190      H1195   1.084       .  S
C1191      C1192   1.413       .  A
C1191      C1198   1.443       .  S
C1192      C1193   1.398       .  A
C1193      C1194   1.393       .  A
C1193      H1196   1.086       .  S
C1194      C1197   1.446       .  S
C1197      N1199   1.157       .  T
C1198      N1200   1.157       .  T
C1201      C1202   1.406       .  A
C1201      C1206   1.418       .  A
C1202      C1203   1.405       .  A
C1202      H1207   1.084       .  S
C1203      C1204   1.417       .  A
C1203      C1210   1.444       .  S
C1204      C1205   1.403       .  A
C1205      C1206   1.399       .  A
C1205      H1208   1.085       .  S
C1206      C1209   1.445       .  S
C1209      N1211   1.157       .  T
C1210      N1212   1.157       .  T
C1213      C1214   1.403       .  A
C1213      C1218   1.416       .  A
C1214      C1215   1.395       .  A
C1214      H1219   1.085       .  S
C1215      C1216   1.416       .  A
C1215      C1222   1.445       .  S
C1216      C1217   1.405       .  A
C1217      C1218   1.403       .  A
C1217      H1220   1.085       .  S
C1218      C1221   1.444       .  S
C1221      N1223   1.157       .  T
C1222      N1224   1.157       .  T
C1225      C1226   1.405       .  A
C1225      C1230   1.413       .  A
C1226      C1227   1.399       .  A
C1226      H1231   1.085       .  S
C1227      C1228   1.417       .  A
C1227      C1234   1.445       .  S
C1228      C1229   1.407       .  A
C1229      C1230   1.402       .  A
C1229      H1232   1.084       .  S
C1230      C1233   1.444       .  S
C1233      N1235   1.157       .  T
C1234      N1236   1.157       .  T
C1237      C1238   1.402       .  A
C1237      C1242   1.415       .  A
C1238      C1239   1.401   1_545  A
C1238      H1243   1.085       .  S
C1239      C1240   1.415       .  A
C1239      C1246   1.445       .  S
C1240      C1241   1.402   1_565  A
C1241      C1242   1.398       .  A
C1241      H1244   1.085       .  S
C1242      C1245   1.445       .  S
C1245      N1247   1.157       .  T
C1246      N1248   1.158       .  T
C1249      C1250   1.406       .  A
C1249      C1254   1.415       .  A
C1250      C1251   1.405       .  A
C1250      H1255   1.085       .  S
C1251      C1252   1.415       .  A
C1251      C1258   1.443       .  S
C1252      C1253   1.405       .  A
C1253      C1254   1.396       .  A
C1253      H1256   1.085       .  S
C1254      C1257   1.446       .  S
C1257      N1259   1.157       .  T
C1258      N1260   1.157       .  T
C1261      C1262   1.404       .  A
C1261      C1266   1.415       .  A
C1262      C1263   1.404       .  A
C1262      H1267   1.085       .  S
C1263      C1264   1.415       .  A
C1263      C1270   1.444       .  S
C1264      C1265   1.403       .  A
C1265      C1266   1.400       .  A
C1265      H1268   1.085       .  S
C1266      C1269   1.445       .  S
C1269      N1271   1.157       .  T
C1270      N1272   1.157       .  T
C1273      C1274   1.402       .  A
C1273      C1278   1.416       .  A
C1274      C1275   1.399       .  A
C1274      H1279   1.085       .  S
C1275      C1276   1.415       .  A
C1275      C1282   1.445       .  S
C1276      C1277   1.401       .  A
C1277      C1278   1.401       .  A
C1277      H1280   1.085       .  S
C1278      C1281   1.444       .  S
C1281      N1283   1.157       .  T
C1282      N1284   1.157       .  T
C1285      C1286   1.403       .  A
C1285      C1290   1.413       .  A
C1286      C1287   1.405       .  A
C1286      H2623   1.085       .  S
C1287      C1288   1.416       .  A
C1287      C2626   1.443       .  S
C1288      C1289   1.404       .  A
C1289      C1290   1.398       .  A
C1289      H1292   1.085       .  S
C1290      C1293   1.446       .  S
H1291      C2618   1.085       .  S
C1293      N1295   1.157       .  T
C1294      C2619   1.443       .  S
C1294      N1296   1.157       .  T
C1297      C1298   1.404       .  A
C1297      C1302   1.417       .  A
C1298      C1299   1.401       .  A
C1298      H1303   1.085       .  S
C1299      C1300   1.415       .  A
C1299      C1306   1.445       .  S
C1300      C1301   1.402       .  A
C1301      C1302   1.403       .  A
C1301      H1304   1.085       .  S
C1302      C1305   1.444       .  S
C1305      N1307   1.157       .  T
C1306      N1308   1.158       .  T
C1309      C1310   1.402       .  A
C1309      C1314   1.415       .  A
C1310      C1311   1.400       .  A
C1310      H1315   1.085       .  S
C1311      C1312   1.416       .  A
C1311      C1318   1.445       .  S
C1312      C1313   1.403       .  A
C1313      C1314   1.404       .  A
C1313      H1316   1.084       .  S
C1314      C1317   1.444       .  S
C1317      N1319   1.157       .  T
C1318      N1320   1.157       .  T
C1321      C1322   1.405   1_565  A
C1321      C2658   1.418   1_565  A
C1322      C1323   1.404       .  A
C1322      H1327   1.085       .  S
C1323      C2656   1.418       .  A
C1323      C1330   1.444       .  S
C1324      C1325   1.403   1_554  A
C1324      C2655   1.418       .  A
C1325      C1326   1.400       .  A
C1325      H1328   1.085       .  S
C1326      C2653   1.418   1_545  A
C1326      C1329   1.445   1_545  S
C1329      N1331   1.157       .  T
C1330      N1332   1.157       .  T
O1333      C1336   1.270       .  A
C1334      O1343   1.264       .  A
C1334      O1339   1.272       .  A
C1334      C2644   1.482       .  S
O1335      C1341   1.271       .  A
O1335     Cd1338   2.481       .  S
C1336      O1344   1.265       .  A
C1336      C2629   1.489       .  S
C1337      O1342   1.271       .  A
C1337      O1340   1.267       .  A
C1337      C2617   1.478       .  S
Cd1338     O1345   2.427       .  S
Cd1338     O1343   2.416       .  S
Cd1338     O1339   2.500       .  S
Cd1338     O1342   2.477       .  S
Cd1338     O1340   2.408       .  S
C1341      O1345   1.264       .  A
C1341      C2653   1.489       .  S
O1346      C1349   1.272       .  A
O1346     Cd1351   2.485       .  S
C1347      O1356   1.264       .  A
C1347      O1352   1.271       .  A
C1347      C2605   1.484       .  S
O1348      C1354   1.272       .  A
O1348     Cd1351   2.488       .  S
C1349      O1357   1.266       .  A
C1349      C2593   1.484       .  S
C1350      O1355   1.272       .  A
C1350      O1353   1.267       .  A
C1350      C2584   1.491       .  S
Cd1351     O1358   2.456       .  S
Cd1351     O1357   2.419       .  S
Cd1351     O1355   2.486       .  S
Cd1351     O1353   2.419       .  S
C1354      O1358   1.265       .  A
C1354      C2656   1.492       .  S
O1359      C1362   1.269       .  A
O1359     Cd1364   2.482       .  S
C1360      O1369   1.268       .  A
C1360      O1365   1.270       .  A
C1360      C2557   1.485       .  S
O1361      C1367   1.269       .  A
O1361     Cd1364   2.475       .  S
C1362      O1370   1.263       .  A
C1362      C2569   1.480       .  S
C1363      O1368   1.271       .  A
C1363      O1366   1.263       .  A
C1363      C2608   1.481       .  S
Cd1364     O1371   2.458       .  S
Cd1364     O1370   2.429       .  S
Cd1364     O1369   2.414       .  S
Cd1364     O1365   2.460       .  S
Cd1364     O1368   2.499       .  S
Cd1364     O1366   2.409       .  S
C1367      O1371   1.265       .  A
C1367      C2596   1.486       .  S
O1372      C1375   1.269       .  A
O1372     Cd1377   2.461       .  S
C1373      O1382   1.264       .  A
C1373      O1378   1.268       .  A
C1373      C2572   1.480       .  S
O1374      C1380   1.270       .  A
O1374     Cd1377   2.473       .  S
C1375      O1383   1.268       .  A
C1375      C2545   1.483       .  S
C1376      O1381   1.270       .  A
C1376      O1379   1.263       .  A
C1376      C2632   1.480       .  S
Cd1377     O1384   2.434       .  S
Cd1377     O1383   2.412       .  S
Cd1377     O1382   2.442       .  S
Cd1377     O1378   2.466       .  S
Cd1377     O1381   2.506       .  S
Cd1377     O1379   2.420       .  S
C1380      O1384   1.265       .  A
C1380      C2641   1.485       .  S
O1385      C1388   1.273       .  A
O1385     Cd1390   2.500       .  S
C1386      O1395   1.264       .  A
C1386      O1391   1.274       .  A
C1386      C2521   1.481       .  S
O1387      C1393   1.271       .  A
O1387     Cd1390   2.466       .  S
C1388      O1396   1.264       .  A
C1388      C2509   1.480       .  S
C1389      O1394   1.270       .  A
C1389      O1392   1.268       .  A
C1389      C2500   1.487       .  S
Cd1390     O1397   2.450       .  S
Cd1390     O1396   2.385       .  S
Cd1390     O1395   2.380       .  S
Cd1390     O1391   2.503       .  S
Cd1390     O1394   2.462       .  S
Cd1390     O1392   2.432       .  S
C1393      O1397   1.266       .  A
C1393      C2536   1.489       .  S
O1398      C1401   1.269       .  A
O1398     Cd1403   2.476       .  S
C1399      O1408   1.266       .  A
C1399      O1404   1.270       .  A
C1399      C2485   1.482       .  S
O1400      C1406   1.272       .  A
O1400     Cd1403   2.506       .  S
C1401      O1409   1.266       .  A
C1401      C2473   1.489       .  S
C1402      O1407   1.272       .  A
C1402      O1405   1.265       .  A
C1402      C2464   1.490       .  S
Cd1403     O1410   2.418       .  S
Cd1403     O1409   2.455       .  S
Cd1403     O1408   2.433       .  S
Cd1403     O1404   2.488       .  S
Cd1403     O1407   2.495       .  S
Cd1403     O1405   2.418       .  S
C1406      O1410   1.263       .  A
C1406      C2533   1.490       .  S
O1411      C1414   1.271       .  A
O1411     Cd1416   2.501       .  S
C1412      O1421   1.266       .  A
C1412      O1417   1.271       .  A
C1412      C2488   1.489       .  S
O1413      C1419   1.272       .  A
O1413     Cd1416   2.493       .  S
C1414      O1422   1.265       .  A
C1414      C2476   1.489       .  S
C1415      O1420   1.271       .  A
C1415      O1418   1.267       .  A
C1415      C2437   1.486       .  S
Cd1416     O1423   2.421       .  S
Cd1416     O1422   2.440       .  S
Cd1416     O1420   2.477       .  S
Cd1416     O1418   2.403       .  S
C1419      O1423   1.263       .  A
C1419      C2452   1.492       .  S
O1424      C1427   1.270       .  A
C1425      O1434   1.265       .  A
C1425      O1430   1.269       .  A
C1425      C2524   1.473       .  S
O1426      C1432   1.272       .  A
O1426     Cd1429   2.481       .  S
C1427      O1435   1.264       .  A
C1427      C2512   1.481       .  S
C1428      O1433   1.270       .  A
C1428      O1431   1.265       .  A
C1428      C2428   1.482       .  S
Cd1429     O1436   2.439       .  S
Cd1429     O1434   2.402       .  S
Cd1429     O1430   2.494       .  S
Cd1429     O1433   2.496       .  S
Cd1429     O1431   2.397       .  S
C1432      O1436   1.265       .  A
C1432      C2449   1.492       .  S
O1437      C1440   1.269       .  A
O1437     Cd1442   2.465       .  S
C1438      O1447   1.264       .  A
C1438      O1443   1.267       .  A
C1438      C2413   1.486   1_655  S
O1439      C1445   1.269       .  A
C1440      O1448   1.266       .  A
C1440      C2377   1.484       .  S
C1441      O1446   1.270       .  A
C1441      O1444   1.264       .  A
C1441      C2389   1.483       .  S
Cd1442     O1448   2.398       .  S
Cd1442     O1447   2.417       .  S
Cd1442     O1443   2.484       .  S
Cd1442     O1446   2.502       .  S
Cd1442     O1444   2.438       .  S
C1445      O1449   1.264       .  A
C1445      C2404   1.487       .  S
O1450      C1453   1.268       .  A
O1450     Cd1455   2.469       .  S
C1451      O1460   1.265       .  A
C1451      O1456   1.267       .  A
C1451      C2416   1.489       .  S
O1452      C1458   1.269       .  A
O1452     Cd1455   2.504       .  S
C1453      O1461   1.267       .  A
C1453      C2341   1.482       .  S
C1454      O1459   1.271       .  A
C1454      O1457   1.265       .  A
C1454      C2353   1.486       .  S
Cd1455     O1462   2.429       .  S
Cd1455     O1461   2.425       .  S
Cd1455     O1460   2.456       .  S
Cd1455     O1456   2.458       .  S
C1458      O1462   1.263       .  A
C1458      C2365   1.481       .  S
O1463      C1466   1.271       .  A
O1463     Cd1468   2.493       .  S
C1464      O1473   1.264       .  A
C1464      O1469   1.272       .  A
C1464      C2368   1.490       .  S
O1465      C1471   1.269       .  A
O1465     Cd1468   2.474       .  S
C1466      O1474   1.264       .  A
C1466      C2356   1.480       .  S
C1467      O1472   1.270       .  A
C1467      O1470   1.268       .  A
C1467      C2317   1.491       .  S
Cd1468     O1475   2.449       .  S
Cd1468     O1474   2.430       .  S
Cd1468     O1473   2.435       .  S
Cd1468     O1469   2.494       .  S
Cd1468     O1472   2.478       .  S
Cd1468     O1470   2.418       .  S
C1471      O1475   1.265       .  A
C1471      C2329   1.491       .  S
O1476      C1479   1.271       .  A
O1476     Cd1481   2.504       .  S
C1477      O1486   1.265       .  A
C1477      O1482   1.270       .  A
C1477      C2401   1.491       .  S
O1478      C1484   1.269       .  A
O1478     Cd1481   2.482       .  S
C1479      O1487   1.264       .  A
C1479      C2392   1.486       .  S
C1480      O1485   1.270       .  A
C1480      O1483   1.266       .  A
C1480      C2305   1.491       .  S
Cd1481     O1488   2.436       .  S
Cd1481     O1487   2.419       .  S
Cd1481     O1486   2.442       .  S
Cd1481     O1482   2.506       .  S
Cd1481     O1485   2.501       .  S
Cd1481     O1483   2.407       .  S
C1484      O1488   1.265       .  A
C1484      C2332   1.491   1_655  S
O1489      C1492   1.271       .  A
O1489     Cd1494   2.510       .  S
C1490      O1499   1.265       .  A
C1490      O1495   1.270       .  A
C1490      C2272   1.486       .  S
O1491      C1497   1.269       .  A
O1491     Cd1494   2.486       .  S
C1492      O1500   1.264       .  A
C1492      C2284   1.480       .  S
C1493      O1498   1.271       .  A
C1493      O1496   1.266       .  A
C1493      C2548   1.482       .  S
Cd1494     O1501   2.445       .  S
Cd1494     O1500   2.408       .  S
Cd1494     O1499   2.433       .  S
Cd1494     O1495   2.469       .  S
Cd1494     O1498   2.471       .  S
Cd1494     O1496   2.407       .  S
C1497      O1501   1.266       .  A
C1497      C2293   1.493       .  S
O1502      C1505   1.272       .  A
O1502     Cd1507   2.480       .  S
C1503      O1512   1.265       .  A
C1503      O1508   1.271       .  A
C1503      C2248   1.481       .  S
O1504      C1510   1.270       .  A
O1504     Cd1507   2.473       .  S
C1505      O1513   1.265       .  A
C1505      C2257   1.484       .  S
C1506      O1511   1.271       .  A
C1506      O1509   1.267       .  A
C1506      C2233   1.493       .  S
Cd1507     O1514   2.459       .  S
Cd1507     O1513   2.426       .  S
Cd1507     O1512   2.416       .  S
Cd1507     O1508   2.496       .  S
Cd1507     O1511   2.492       .  S
Cd1507     O1509   2.417       .  S
C1510      O1514   1.266       .  A
C1510      C2296   1.494       .  S
O1515      C1518   1.271       .  A
O1515     Cd1520   2.477       .  S
C1516      O1525   1.264       .  A
C1516      O1521   1.271       .  A
O1517      C1523   1.268       .  A
O1517     Cd1520   2.456       .  S
C1518      O1526   1.264       .  A
C1518      C2281   1.485       .  S
C1519      O1524   1.271       .  A
C1519      O1522   1.266       .  A
C1519      C2344   1.475       .  S
Cd1520     O1527   2.445       .  S
Cd1520     O1526   2.431       .  S
Cd1520     O1525   2.413       .  S
Cd1520     O1521   2.487       .  S
Cd1520     O1524   2.472       .  S
Cd1520     O1522   2.383       .  S
C1523      O1527   1.265       .  A
C1523      C2221   1.486       .  S
O1528      C1531   1.272       .  A
O1528     Cd1533   2.495       .  S
C1529      O1538   1.265       .  A
C1529      O1534   1.271       .  A
C1529      C2245   1.483       .  S
O1530      C1536   1.270       .  A
O1530     Cd1533   2.480       .  S
C1531      O1539   1.264       .  A
C1531      C2260   1.484       .  S
C1532      O1537   1.271       .  A
C1532      O1535   1.267       .  A
C1532      C2209   1.481       .  S
Cd1533     O1540   2.406       .  S
Cd1533     O1539   2.412       .  S
Cd1533     O1538   2.434       .  S
Cd1533     O1534   2.475       .  S
Cd1533     O1537   2.455       .  S
Cd1533     O1535   2.398       .  S
C1536      O1540   1.265       .  A
C1536      C2224   1.483       .  S
O1541      C1544   1.271       .  A
O1541     Cd1546   2.498       .  S
C1542      O1551   1.266       .  A
C1542      O1547   1.271       .  A
C1542      C2173   1.487       .  S
O1543      C1549   1.271       .  A
O1543     Cd1546   2.487       .  S
C1544      O1552   1.265       .  A
C1544      C2185   1.486       .  S
C1545      O1550   1.271       .  A
C1545      O1548   1.267       .  A
C1545      C2164   1.487       .  S
Cd1546     O1553   2.428       .  S
Cd1546     O1552   2.424       .  S
Cd1546     O1551   2.432       .  S
Cd1546     O1547   2.472       .  S
Cd1546     O1550   2.478       .  S
Cd1546     O1548   2.403       .  S
C1549      O1553   1.264       .  A
C1549      C2197   1.491       .  S
O1554      C1557   1.273       .  A
O1554     Cd1559   2.509       .  S
C1555      O1564   1.265       .  A
C1555      O1560   1.273       .  A
C1555      C2140   1.487       .  S
O1556      C1562   1.272       .  A
O1556     Cd1559   2.467       .  S
C1557      O1565   1.265       .  A
C1557      C2149   1.492       .  S
C1558      O1563   1.271       .  A
C1558      O1561   1.266       .  A
C1558      C2308   1.487       .  S
Cd1559     O1566   2.429       .  S
Cd1559     O1565   2.426       .  S
Cd1559     O1564   2.412       .  S
Cd1559     O1560   2.515       .  S
Cd1559     O1563   2.496       .  S
Cd1559     O1561   2.405       .  S
C1562      O1566   1.265       .  A
C1562      C2200   1.489       .  S
O1567      C1570   1.270       .  A
O1567     Cd1572   2.482       .  S
C1568      O1577   1.262       .  A
C1568      O1573   1.268       .  A
C1568      C2125   1.488       .  S
O1569      C1575   1.269       .  A
O1569     Cd1572   2.494       .  S
C1570      O1578   1.267       .  A
C1570      C2236   1.493   1_655  S
C1571      O1576   1.267       .  A
C1571      O1574   1.264       .  A
C1571      C2188   1.489       .  S
Cd1572     O1579   2.436       .  S
Cd1572     O1578   2.430       .  S
Cd1572     O1577   2.426       .  S
Cd1572     O1573   2.492       .  S
Cd1572     O1576   2.490       .  S
Cd1572     O1574   2.462       .  S
C1575      O1579   1.264       .  A
C1575      C2176   1.481       .  S
O1580      C1583   1.269       .  A
O1580     Cd1585   2.483       .  S
C1581      O1590   1.266       .  A
C1581      O1586   1.271       .  A
C1581      C2128   1.487       .  S
O1582      C1588   1.271       .  A
O1582     Cd1585   2.484       .  S
C1583      O1591   1.265       .  A
C1583      C2440   1.489       .  S
C1584      O1587   1.263       .  A
C1584      C2152   1.485   1_554  S
Cd1585     O1592   2.451       .  S
Cd1585     O1591   2.421       .  S
Cd1585     O1590   2.422       .  S
Cd1585     O1586   2.468       .  S
Cd1585     O1589   2.515       .  S
C1588      O1592   1.265       .  A
C1588      C2137   1.488       .  S
O1593      C1596   1.271       .  A
O1593     Cd1598   2.490       .  S
C1594      O1603   1.264       .  A
C1594      O1599   1.272       .  A
C1594      C2104   1.489       .  S
O1595      C1601   1.271       .  A
O1595     Cd1598   2.481       .  S
C1596      O1604   1.266       .  A
C1596      C2089   1.491       .  S
C1597      O1602   1.270       .  A
C1597      O1600   1.265       .  A
C1597      C2113   1.485       .  S
Cd1598     O1605   2.382       .  S
Cd1598     O1604   2.424       .  S
Cd1598     O1603   2.427       .  S
Cd1598     O1599   2.505       .  S
Cd1598     O1602   2.476       .  S
Cd1598     O1600   2.412       .  S
C1601      O1605   1.265       .  A
C1601      C2161   1.481       .  S
O1606      C1609   1.270       .  A
O1606     Cd1611   2.484       .  S
C1607      O1616   1.263       .  A
C1607      O1612   1.271       .  A
O1608      C1614   1.269       .  A
O1608     Cd1611   2.478       .  S
C1609      O1617   1.267       .  A
C1609      C2077   1.490       .  S
C1610      O1615   1.270       .  A
C1610      O1613   1.267       .  A
C1610      C2620   1.485       .  S
Cd1611     O1618   2.437       .  S
Cd1611     O1617   2.451       .  S
Cd1611     O1616   2.410       .  S
Cd1611     O1612   2.509       .  S
Cd1611     O1615   2.490       .  S
Cd1611     O1613   2.425       .  S
C1614      O1618   1.264       .  A
C1614      C2116   1.487       .  S
O1619      C1622   1.270       .  A
O1619     Cd1624   2.472       .  S
C1620      O1629   1.263       .  A
C1620      O1625   1.269       .  A
C1620      C2053   1.492       .  S
O1621      C1627   1.270       .  A
O1621     Cd1624   2.500       .  S
C1622      O1630   1.267       .  A
C1622      C2497   1.480       .  S
C1623      O1628   1.271       .  A
C1623      O1626   1.264       .  A
C1623      C2080   1.484       .  S
Cd1624     O1631   2.433       .  S
Cd1624     O1630   2.421       .  S
Cd1624     O1629   2.443       .  S
Cd1624     O1625   2.485       .  S
Cd1624     O1628   2.501       .  S
Cd1624     O1626   2.426       .  S
C1627      O1631   1.264       .  A
C1627      C2068   1.486       .  S
O1632      C1635   1.272       .  A
O1632     Cd1637   2.493       .  S
C1633      O1642   1.262       .  A
C1633      O1638   1.271       .  A
C1633      C2056   1.493       .  S
O1634      C1640   1.270       .  A
O1634     Cd1637   2.501       .  S
C1635      O1643   1.267       .  A
C1635      C2044   1.496       .  S
C1636      O1641   1.270       .  A
C1636      O1639   1.265       .  A
C1636      C2101   1.486       .  S
Cd1637     O1644   2.436       .  S
Cd1637     O1643   2.447       .  S
Cd1637     O1642   2.445       .  S
Cd1637     O1638   2.497       .  S
Cd1637     O1641   2.485       .  S
Cd1637     O1639   2.457       .  S
C1640      O1644   1.264       .  A
C1640      C2092   1.479       .  S
O1645     Cd1650   2.474       .  S
C1646      O1655   1.266       .  A
C1646      O1651   1.271       .  A
C1646      C2005   1.487       .  S
O1647      C1653   1.272       .  A
O1647     Cd1650   2.497       .  S
C1648      C2020   1.494       .  S
C1649      O1654   1.273       .  A
C1649      O1652   1.265       .  A
C1649      C2581   1.489       .  S
Cd1650     O1657   2.426       .  S
Cd1650     O1656   2.445       .  S
Cd1650     O1655   2.431       .  S
Cd1650     O1651   2.495       .  S
Cd1650     O1654   2.483       .  S
Cd1650     O1652   2.398       .  S
C1653      O1657   1.263       .  A
C1653      C2032   1.493       .  S
O1658      C1661   1.271       .  A
O1658     Cd1663   2.465       .  S
C1659      O1668   1.265       .  A
C1659      O1664   1.272       .  A
C1659      C1981   1.487       .  S
O1660      C1666   1.272       .  A
O1660     Cd1663   2.492       .  S
C1661      O1669   1.265       .  A
C1661      C1996   1.481       .  S
C1662      O1667   1.271       .  A
C1662      O1665   1.267       .  A
C1662      C1972   1.485       .  S
Cd1663     O1670   2.421       .  S
Cd1663     O1669   2.452       .  S
Cd1663     O1668   2.419       .  S
Cd1663     O1664   2.513       .  S
Cd1663     O1667   2.474       .  S
Cd1663     O1665   2.399       .  S
C1666      O1670   1.263       .  A
C1666      C2029   1.492       .  S
O1671      C1674   1.269       .  A
O1671     Cd1676   2.475       .  S
C1672      O1681   1.265       .  A
C1672      O1677   1.268       .  A
C1672      C1960   1.489       .  S
O1673      C1679   1.270       .  A
O1673     Cd1676   2.489       .  S
C1674      O1682   1.266       .  A
C1674      C2212   1.485       .  S
C1675      O1680   1.270       .  A
C1675      O1678   1.263       .  A
C1675      C1993   1.489       .  S
Cd1676     O1683   2.434       .  S
Cd1676     O1682   2.416       .  S
Cd1676     O1681   2.442       .  S
Cd1676     O1677   2.467       .  S
Cd1676     O1680   2.499       .  S
Cd1676     O1678   2.426       .  S
C1679      O1683   1.264       .  A
C1679      C1984   1.483       .  S
O1684      C1687   1.268       .  A
O1684     Cd1689   2.459       .  S
C1685      O1694   1.264       .  A
C1685      O1690   1.267       .  A
C1685      C1957   1.488       .  S
O1686      C1692   1.270       .  A
O1686     Cd1689   2.517       .  S
C1687      O1695   1.270       .  A
C1687      C2461   1.491       .  S
C1688      O1693   1.269       .  A
C1688      O1691   1.264       .  A
C1688      C2017   1.485       .  S
Cd1689     O1696   2.440       .  S
Cd1689     O1695   2.442       .  S
Cd1689     O1694   2.445       .  S
Cd1689     O1690   2.477       .  S
Cd1689     O1693   2.492       .  S
Cd1689     O1691   2.453       .  S
C1692      O1696   1.263       .  A
C1692      C2008   1.487       .  S
O1697      C1700   1.270       .  A
O1697     Cd1702   2.485       .  S
C1698      O1707   1.265       .  A
C1698      O1703   1.271       .  A
C1698      C1921   1.484       .  S
O1699      C1705   1.269       .  A
O1699     Cd1702   2.489       .  S
C1700      O1708   1.265       .  A
C1700      C1933   1.488       .  S
C1701      O1706   1.271       .  A
C1701      O1704   1.267       .  A
C1701      C2560   1.490       .  S
Cd1702     O1709   2.440       .  S
Cd1702     O1708   2.442       .  S
Cd1702     O1707   2.418       .  S
Cd1702     O1703   2.509       .  S
Cd1702     O1706   2.476       .  S
Cd1702     O1704   2.430       .  S
C1705      O1709   1.264       .  A
C1705      C1945   1.490       .  S
O1710      C1713   1.272       .  A
O1710     Cd1715   2.481       .  S
C1711      O1720   1.266       .  A
C1711      O1716   1.271       .  A
C1711      C1900   1.488       .  S
O1712      C1718   1.271       .  A
O1712     Cd1715   2.487       .  S
C1713      O1721   1.265       .  A
C1713      C1909   1.481       .  S
C1714      O1719   1.273       .  A
C1714      O1717   1.265       .  A
C1714      C1885   1.486       .  S
Cd1715     O1722   2.446       .  S
Cd1715     O1721   2.413       .  S
Cd1715     O1720   2.416       .  S
Cd1715     O1716   2.476       .  S
Cd1715     O1719   2.482       .  S
Cd1715     O1717   2.397       .  S
C1718      O1722   1.266       .  A
C1718      C1948   1.492       .  S
O1723     Cd1728   2.490       .  S
C1724      O1733   1.266       .  A
C1724      O1729   1.269       .  A
C1724      C1924   1.489       .  S
O1725      C1731   1.269       .  A
O1725     Cd1728   2.471       .  S
C1726      C1936   1.483   1_554  S
C1727      O1732   1.270       .  A
C1727      O1730   1.266       .  A
C1727      C2380   1.486       .  S
Cd1728     O1735   2.440       .  S
Cd1728     O1734   2.427       .  S
Cd1728     O1733   2.458       .  S
Cd1728     O1729   2.467       .  S
Cd1728     O1732   2.485       .  S
Cd1728     O1730   2.391       .  S
C1731      O1735   1.265       .  A
C1731      C1876   1.490       .  S
O1736      C1739   1.271       .  A
O1736     Cd1741   2.485       .  S
C1737      O1746   1.264       .  A
C1737      O1742   1.270       .  A
C1737      C1897   1.472       .  S
O1738      C1744   1.270       .  A
O1738     Cd1741   2.477       .  S
C1739      O1747   1.264       .  A
C1739      C1912   1.479       .  S
C1740      O1745   1.271       .  A
C1740      O1743   1.269       .  A
C1740      C2041   1.494       .  S
Cd1741     O1748   2.438       .  S
Cd1741     O1747   2.409       .  S
Cd1741     O1746   2.419       .  S
Cd1741     O1742   2.478       .  S
Cd1741     O1745   2.471       .  S
Cd1741     O1743   2.433       .  S
C1744      O1748   1.264       .  A
C1744      C1873   1.490       .  S
O1749      C1752   1.271       .  A
O1749     Cd1754   2.483       .  S
C1750      O1759   1.264       .  A
C1750      O1755   1.272       .  A
C1750      C1837   1.478       .  S
O1751      C1757   1.272       .  A
O1751     Cd1754   2.471       .  S
C1752      O1760   1.266       .  A
C1752      C1849   1.481       .  S
C1753      O1758   1.273       .  A
C1753      O1756   1.265       .  A
C1753      C2320   1.493       .  S
Cd1754     O1761   2.435       .  S
Cd1754     O1760   2.407       .  S
Cd1754     O1759   2.405       .  S
Cd1754     O1755   2.477       .  S
Cd1754     O1758   2.499       .  S
Cd1754     O1756   2.401       .  S
C1757      O1761   1.264       .  A
C1757      C1864   1.490       .  S
O1762      C1765   1.272       .  A
O1762     Cd1767   2.486       .  S
C1763      O1772   1.265       .  A
C1763      O1768   1.272       .  A
C1763      C1813   1.486       .  S
O1764      C1770   1.271       .  A
O1764     Cd1767   2.484       .  S
C1765      O1773   1.265       .  A
C1765      C1825   1.489       .  S
C1766      O1771   1.272       .  A
C1766      O1769   1.265       .  A
C1766      C1969   1.485       .  S
Cd1767     O1774   2.411       .  S
Cd1767     O1773   2.438       .  S
Cd1767     O1772   2.424       .  S
Cd1767     O1768   2.499       .  S
Cd1767     O1771   2.466       .  S
Cd1767     O1769   2.396       .  S
C1770      O1774   1.264       .  A
C1770      C1861   1.489       .  S
O1775      C1778   1.270       .  A
O1775     Cd1780   2.473       .  S
C1776      O1785   1.264       .  A
C1776      O1781   1.269       .  A
C1776      C1804   1.485       .  S
O1777      C1783   1.270   1_556  A
O1777     Cd1780   2.498       .  S
C1778      O1786   1.266       .  A
C1778      C2425   1.483       .  S
C1779      O1784   1.271       .  A
C1779      O1782   1.265       .  A
C1779      C1852   1.480       .  S
Cd1780     O1787   2.418       .  S
Cd1780     O1786   2.416       .  S
Cd1780     O1785   2.441       .  S
Cd1780     O1781   2.470       .  S
Cd1780     O1784   2.484       .  S
Cd1780     O1782   2.421       .  S
C1783      O1787   1.263   1_554  A
O1788      C1791   1.268       .  A
O1788     Cd1793   2.463       .  S
C1789      O1798   1.263       .  A
C1789      O1794   1.268       .  A
C1789      C1801   1.484       .  S
O1790      C1796   1.271       .  A
O1790     Cd1793   2.493       .  S
C1791      O1799   1.269       .  A
C1791      C1888   1.487       .  S
C1792      O1797   1.270       .  A
C1792      O1795   1.263       .  A
C1792      C1828   1.484       .  S
Cd1793     O1800   2.435       .  S
Cd1793     O1799   2.417       .  S
Cd1793     O1798   2.432       .  S
Cd1793     O1794   2.468       .  S
Cd1793     O1797   2.525       .  S
Cd1793     O1795   2.427       .  S
C1796      O1800   1.264       .  A
C1796      C1816   1.488       .  S
C1801      C1802   1.403       .  A
C1801      C1806   1.417       .  A
C1802      C1803   1.400       .  A
C1802      H1807   1.085       .  S
C1803      C1804   1.417       .  A
C1803      C1810   1.445       .  S
C1804      C1805   1.403       .  A
C1805      C1806   1.400       .  A
C1805      H1808   1.085       .  S
C1806      C1809   1.445       .  S
C1809      N1811   1.157       .  T
C1810      N1812   1.157       .  T
C1813      C1814   1.404       .  A
C1813      C1818   1.417       .  A
C1814      H1819   1.084       .  S
C1815      C1816   1.418   1_554  A
C1815      C1822   1.444       .  S
C1817      C1818   1.401       .  A
C1818      C1821   1.445       .  S
C1821      N1823   1.157       .  T
C1822      N1824   1.157       .  T
C1825      C1826   1.403       .  A
C1825      C1830   1.418       .  A
C1826      C1827   1.401       .  A
C1826      H1831   1.085       .  S
C1827      C1828   1.414       .  A
C1827      C1834   1.445       .  S
C1828      C1829   1.403       .  A
C1829      C1830   1.406       .  A
C1829      H1832   1.085       .  S
C1830      C1833   1.444       .  S
C1833      N1835   1.157       .  T
C1834      N1836   1.157       .  T
C1837      C1838   1.402       .  A
C1837      C1842   1.415       .  A
C1838      C1839   1.400       .  A
C1838      H1843   1.085       .  S
C1839      C1840   1.415       .  A
C1839      C1846   1.445       .  S
C1840      C1841   1.402       .  A
C1841      C1842   1.401       .  A
C1841      H1844   1.085       .  S
C1842      C1845   1.445       .  S
C1845      N1847   1.157       .  T
C1846      N1848   1.157       .  T
C1849      C1850   1.403       .  A
C1849      C1854   1.415       .  A
C1850      C1851   1.402       .  A
C1850      H1855   1.085       .  S
C1851      C1852   1.414       .  A
C1851      C1858   1.444       .  S
C1852      C1853   1.402       .  A
C1853      C1854   1.400       .  A
C1853      H1856   1.085       .  S
C1854      C1857   1.445       .  S
C1857      N1859   1.157       .  T
C1858      N1860   1.157       .  T
C1861      C1862   1.404       .  A
C1861      C1866   1.417       .  A
C1862      C1863   1.402       .  A
C1862      H1867   1.085       .  S
C1863      C1864   1.420       .  A
C1863      C1870   1.445       .  S
C1864      C1865   1.403       .  A
C1865      C1866   1.399       .  A
C1865      H1868   1.085       .  S
C1866      C1869   1.444       .  S
C1869      N1871   1.157       .  T
C1870      N1872   1.158       .  T
C1873      C1874   1.408       .  A
C1873      C1878   1.413       .  A
C1874      C1875   1.401       .  A
C1874      H1879   1.085       .  S
C1875      C1876   1.414       .  A
C1875      C1882   1.445       .  S
C1876      C1877   1.408       .  A
C1877      C1878   1.401       .  A
C1877      H1880   1.085       .  S
C1878      C1881   1.444       .  S
C1881      N1883   1.157       .  T
C1882      N1884   1.157       .  T
C1885      C1886   1.405   1_655  A
C1885      C1890   1.417   1_655  A
C1886      C1887   1.404       .  A
C1886      H1891   1.085       .  S
C1887      C1888   1.417       .  A
C1887      C1894   1.444       .  S
C1888      C1889   1.403       .  A
C1889      C1890   1.395       .  A
C1889      H1892   1.085       .  S
C1890      C1893   1.445   1_455  S
C1893      N1895   1.157       .  T
C1894      N1896   1.157       .  T
C1897      C1898   1.403       .  A
C1897      C1902   1.407       .  A
C1898      C1899   1.402       .  A
C1898      H1903   1.085       .  S
C1899      C1900   1.415       .  A
C1899      C1906   1.444       .  S
C1900      C1901   1.410       .  A
C1901      C1902   1.399       .  A
C1901      H1904   1.084       .  S
C1902      C1905   1.445       .  S
C1905      N1907   1.157       .  T
C1906      N1908   1.157       .  T
C1909      C1910   1.402       .  A
C1909      C1914   1.416       .  A
C1910      C1911   1.401       .  A
C1910      H1915   1.085       .  S
C1912      C1913   1.402       .  A
C1913      H1916   1.085       .  S
C1914      C1917   1.445       .  S
C1917      N1919   1.158       .  T
C1918      N1920   1.157       .  T
C1921      C1922   1.404       .  A
C1921      C1926   1.411       .  A
C1922      C1923   1.399       .  A
C1922      H1927   1.085       .  S
C1923      C1924   1.414       .  A
C1923      C1930   1.444       .  S
C1924      C1925   1.410       .  A
C1925      C1926   1.405       .  A
C1925      H1928   1.085       .  S
C1926      C1929   1.444       .  S
C1929      N1931   1.157       .  T
C1930      N1932   1.157       .  T
C1933      C1934   1.409       .  A
C1933      C1938   1.414       .  A
C1934      C1935   1.404       .  A
C1934      H1939   1.084       .  S
C1935      C1936   1.410       .  A
C1935      C1942   1.444       .  S
C1936      C1937   1.405       .  A
C1937      C1938   1.401       .  A
C1937      H1940   1.085       .  S
C1938      C1941   1.444       .  S
C1941      N1943   1.157       .  T
C1942      N1944   1.157   1_556  T
C1945      C1946   1.407       .  A
C1945      C1950   1.414       .  A
C1946      C1947   1.402       .  A
C1946      H1951   1.085       .  S
C1947      C1948   1.414       .  A
C1947      C1954   1.444       .  S
C1948      C1949   1.408       .  A
C1949      C1950   1.403       .  A
C1949      H1952   1.085       .  S
C1950      C1953   1.444       .  S
C1953      N1955   1.157       .  T
C1954      N1956   1.157       .  T
C1957      C1958   1.407       .  A
C1957      C1962   1.413       .  A
C1958      C1959   1.400       .  A
C1958      H1963   1.085       .  S
C1959      C1960   1.414       .  A
C1959      C1966   1.444       .  S
C1960      C1961   1.408       .  A
C1961      C1962   1.401       .  A
C1961      H1964   1.084       .  S
C1962      C1965   1.444       .  S
C1965      N1967   1.157       .  T
C1966      N1968   1.157       .  T
C1969      C1970   1.406       .  A
C1969      C1974   1.416       .  A
C1970      C1971   1.403       .  A
C1970      H1975   1.084       .  S
C1971      C1972   1.414       .  A
C1971      C1978   1.443       .  S
C1972      C1973   1.405       .  A
C1973      C1974   1.395       .  A
C1973      H1976   1.085       .  S
C1974      C1977   1.446       .  S
C1977      N1979   1.158       .  T
C1978      N1980   1.157       .  T
C1981      C1982   1.405       .  A
C1981      C1986   1.416       .  A
C1982      C1983   1.405       .  A
C1982      H1987   1.084       .  S
C1983      C1984   1.414       .  A
C1983      C1990   1.444       .  S
C1984      C1985   1.401       .  A
C1985      C1986   1.400       .  A
C1985      H1988   1.085       .  S
C1986      C1989   1.445       .  S
C1989      N1991   1.157       .  T
C1990      N1992   1.157       .  T
C1993      C1994   1.406       .  A
C1993      C1998   1.418       .  A
C1994      C1995   1.405       .  A
C1994      H1999   1.085       .  S
C1995      C2002   1.443       .  S
C1996      C1997   1.401       .  A
C1997      H2000   1.085       .  S
C1998      C2001   1.445       .  S
C2001      N2003   1.157       .  T
C2005      C2006   1.407       .  A
C2005      C2010   1.413       .  A
C2006      C2007   1.403       .  A
C2006      H2011   1.085       .  S
C2007      C2008   1.411       .  A
C2007      C2014   1.443       .  S
C2008      C2009   1.408       .  A
C2009      C2010   1.403       .  A
C2009      H2012   1.085       .  S
C2010      C2013   1.444       .  S
C2013      N2015   1.157       .  T
C2014      N2016   1.157       .  T
C2017      C2018   1.404       .  A
C2017      C2022   1.413       .  A
C2018      C2019   1.404       .  A
C2018      H2023   1.085       .  S
C2019      C2020   1.416       .  A
C2019      C2026   1.444       .  S
C2020      C2021   1.409       .  A
C2021      C2022   1.403       .  A
C2021      H2024   1.084       .  S
C2022      C2025   1.445       .  S
C2025      N2027   1.157       .  T
C2026      N2028   1.157       .  T
C2029      C2030   1.404       .  A
C2029      C2034   1.420       .  A
C2030      C2031   1.402       .  A
C2030      H2035   1.085       .  S
C2031      C2032   1.419       .  A
C2031      C2038   1.445       .  S
C2032      C2033   1.404       .  A
C2033      C2034   1.402       .  A
C2033      H2036   1.085       .  S
C2034      C2037   1.445       .  S
C2037      N2039   1.157       .  T
C2038      N2040   1.157       .  T
C2041      C2042   1.405       .  A
C2041      C2046   1.416       .  A
C2042      C2043   1.400       .  A
C2042      H2047   1.085       .  S
C2043      C2044   1.418   1_545  A
C2043      C2050   1.444   1_545  S
C2044      C2045   1.408   1_565  A
C2045      C2046   1.406       .  A
C2045      H2048   1.084   1_545  S
C2046      C2049   1.444       .  S
C2049      N2051   1.157       .  T
C2050      N2052   1.157       .  T
C2053      C2054   1.404       .  A
C2053      C2058   1.418       .  A
C2054      C2055   1.402       .  A
C2054      H2059   1.085       .  S
C2055      C2056   1.420       .  A
C2055      C2062   1.444       .  S
C2056      C2057   1.404       .  A
C2057      C2058   1.402       .  A
C2057      H2060   1.085       .  S
C2058      C2061   1.444       .  S
C2061      N2063   1.157       .  T
C2062      N2064   1.157       .  T
C2065      C2066   1.402       .  A
C2065      C2070   1.414       .  A
C2066      C2067   1.403       .  A
C2066      H2071   1.085       .  S
C2067      C2068   1.417       .  A
C2067      C2074   1.444       .  S
C2068      C2069   1.404       .  A
C2069      C2070   1.401       .  A
C2069      H2072   1.085       .  S
C2070      C2073   1.446       .  S
C2073      N2075   1.157       .  T
C2074      N2076   1.157       .  T
C2077      C2078   1.408       .  A
C2077      C2082   1.414       .  A
C2078      C2079   1.404       .  A
C2078      H2083   1.085       .  S
C2079      C2080   1.411       .  A
C2079      C2086   1.444       .  S
C2080      C2081   1.406       .  A
C2081      C2082   1.402       .  A
C2081      H2084   1.085       .  S
C2082      C2085   1.444       .  S
C2085      N2087   1.157       .  T
C2086      N2088   1.157       .  T
C2090      C2091   1.402       .  A
C2091      C2092   1.409       .  A
C2091      C2098   1.444       .  S
C2092      C2093   1.403       .  A
C2093      C2094   1.403       .  A
C2093      H2096   1.085       .  S
C2097      N2099   1.157       .  T
C2098      N2100   1.157       .  T
C2101      C2102   1.403       .  A
C2101      C2106   1.415       .  A
C2102      C2103   1.401       .  A
C2102      H2107   1.085       .  S
C2103      C2104   1.417       .  A
C2103      C2110   1.445       .  S
C2104      C2105   1.405       .  A
C2105      C2106   1.405       .  A
C2105      H2108   1.084       .  S
C2106      C2109   1.443       .  S
C2109      N2111   1.157       .  T
C2110      N2112   1.157       .  T
C2113      C2114   1.407       .  A
C2113      C2118   1.412       .  A
C2114      C2115   1.398       .  A
C2114      H2119   1.085       .  S
C2115      C2116   1.412       .  A
C2115      C2122   1.444       .  S
C2116      C2117   1.409       .  A
C2117      C2118   1.402       .  A
C2117      H2120   1.085       .  S
C2118      C2121   1.444       .  S
C2121      N2123   1.157       .  T
C2125      C2126   1.408       .  A
C2125      C2130   1.413       .  A
C2126      C2127   1.399       .  A
C2126      H2131   1.085       .  S
C2127      C2128   1.413       .  A
C2127      C2134   1.444       .  S
C2128      C2129   1.408       .  A
C2129      C2130   1.401       .  A
C2129      H2132   1.085       .  S
C2130      C2133   1.444       .  S
C2133      N2135   1.157       .  T
C2134      N2136   1.157       .  T
C2137      C2138   1.403       .  A
C2137      C2142   1.417       .  A
C2138      C2139   1.400       .  A
C2138      H2143   1.085       .  S
C2139      C2140   1.416       .  A
C2139      C2146   1.445       .  S
C2140      C2141   1.404       .  A
C2141      C2142   1.406       .  A
C2141      H2144   1.084       .  S
C2142      C2145   1.444       .  S
C2145      N2147   1.157       .  T
C2146      N2148   1.157       .  T
C2149      C2150   1.407       .  A
C2149      C2154   1.419       .  A
C2150      C2151   1.407       .  A
C2150      H2155   1.084       .  S
C2151      C2152   1.412       .  A
C2151      C2158   1.442       .  S
C2152      C2153   1.402       .  A
C2153      C2154   1.399       .  A
C2153      H2156   1.085       .  S
C2154      C2157   1.445       .  S
C2157      N2159   1.158       .  T
C2158      N2160   1.157       .  T
C2161      C2162   1.405       .  A
C2161      C2166   1.414       .  A
C2162      C2163   1.406       .  A
C2162      H2167   1.085       .  S
C2163      C2164   1.417       .  A
C2163      C2170   1.443       .  S
C2164      C2165   1.404       .  A
C2165      C2166   1.393       .  A
C2165      H2168   1.085       .  S
C2166      C2169   1.446       .  S
C2169      N2171   1.157       .  T
C2170      N2172   1.157       .  T
C2173      C2174   1.408       .  A
C2173      C2178   1.414       .  A
C2174      C2175   1.403       .  A
C2174      H2179   1.085       .  S
C2175      C2176   1.410       .  A
C2175      C2182   1.444       .  S
C2176      C2177   1.404       .  A
C2177      C2178   1.401       .  A
C2177      H2180   1.085       .  S
C2178      C2181   1.444       .  S
C2181      N2183   1.157       .  T
C2182      N2184   1.157       .  T
C2185      C2186   1.406       .  A
C2185      C2190   1.411       .  A
C2186      H2191   1.085       .  S
C2187      C2188   1.415       .  A
C2187      C2194   1.444       .  S
C2189      C2190   1.404       .  A
C2189      H2192   1.085       .  S
C2190      C2193   1.443       .  S
C2193      N2195   1.157       .  T
C2194      N2196   1.157       .  T
C2197      C2198   1.405       .  A
C2197      C2202   1.419       .  A
C2198      C2199   1.402       .  A
C2198      H2203   1.085       .  S
C2199      C2200   1.418       .  A
C2199      C2206   1.445       .  S
C2200      C2201   1.403       .  A
C2201      C2202   1.400       .  A
C2201      H2204   1.085       .  S
C2202      C2205   1.444       .  S
C2205      N2207   1.157       .  T
C2206      N2208   1.157       .  T
C2209      C2210   1.403   1_565  A
C2209      C2214   1.414   1_565  A
C2210      C2211   1.394       .  A
C2210      H2215   1.085   1_545  S
C2211      C2212   1.416       .  A
C2211      C2218   1.445       .  S
C2212      C2213   1.407       .  A
C2213      C2214   1.404       .  A
C2213      H2216   1.084       .  S
C2214      C2217   1.444   1_545  S
C2217      N2219   1.158       .  T
C2218      N2220   1.157       .  T
C2221      C2222   1.409       .  A
C2221      C2226   1.413       .  A
C2222      C2223   1.402       .  A
C2222      H2227   1.085       .  S
C2223      C2224   1.412       .  A
C2223      C2230   1.444       .  S
C2224      C2225   1.406       .  A
C2225      C2226   1.396       .  A
C2225      H2228   1.085       .  S
C2226      C2229   1.444       .  S
C2229      N2231   1.157       .  T
C2230      N2232   1.157       .  T
C2233      C2234   1.406       .  A
C2233      C2238   1.416       .  A
C2234      C2235   1.398       .  A
C2234      H2239   1.085       .  S
C2235      C2236   1.416       .  A
C2235      C2242   1.445       .  S
C2236      C2237   1.408       .  A
C2237      C2238   1.406       .  A
C2237      H2240   1.084       .  S
C2238      C2241   1.444       .  S
C2241      N2243   1.157       .  T
C2242      N2244   1.157       .  T
C2245      C2246   1.402       .  A
C2246      H2251   1.085       .  S
C2247      C2248   1.415       .  A
C2247      C2254   1.445       .  S
C2248      C2249   1.402       .  A
C2249      C2250   1.403       .  A
C2249      H2252   1.085       .  S
C2253      N2255   1.157   1_554  T
C2254      N2256   1.157       .  T
C2257      C2258   1.402       .  A
C2257      C2262   1.416       .  A
C2258      C2259   1.400       .  A
C2258      H2263   1.085       .  S
C2259      C2260   1.416       .  A
C2259      C2266   1.445       .  S
C2260      C2261   1.403       .  A
C2261      C2262   1.403       .  A
C2261      H2264   1.085       .  S
C2262      C2265   1.444       .  S
C2265      N2267   1.157       .  T
C2266      N2268   1.157       .  T
C2269      C2270   1.404       .  A
C2269      C2274   1.408       .  A
C2270      C2271   1.399       .  A
C2270      H2275   1.085       .  S
C2271      C2272   1.414       .  A
C2271      C2278   1.444       .  S
C2272      C2273   1.409       .  A
C2273      C2274   1.402       .  A
C2273      H2276   1.084       .  S
C2274      C2277   1.444       .  S
C2277      N2279   1.157       .  T
C2278      N2280   1.157       .  T
C2281      C2282   1.402       .  A
C2281      C2286   1.417       .  A
C2282      C2283   1.398       .  A
C2282      H2287   1.085       .  S
C2283      C2284   1.413       .  A
C2283      C2290   1.445       .  S
C2284      C2285   1.402       .  A
C2285      C2286   1.405       .  A
C2285      H2288   1.084       .  S
C2286      C2289   1.444       .  S
C2289      N2291   1.157       .  T
C2290      N2292   1.157       .  T
C2293      C2294   1.407       .  A
C2293      C2298   1.415       .  A
C2294      C2295   1.401       .  A
C2294      H2299   1.085       .  S
C2295      C2296   1.414       .  A
C2295      C2302   1.444       .  S
C2296      C2297   1.410       .  A
C2297      C2298   1.405       .  A
C2297      H2300   1.085       .  S
C2298      C2301   1.444       .  S
C2301      N2303   1.158       .  T
C2302      N2304   1.157       .  T
C2305      C2306   1.404       .  A
C2305      C2310   1.417       .  A
C2306      C2307   1.394       .  A
C2306      H2311   1.085       .  S
C2307      C2308   1.414       .  A
C2307      C2314   1.445       .  S
C2308      C2309   1.407       .  A
C2309      C2310   1.408       .  A
C2309      H2312   1.084       .  S
C2310      C2313   1.444       .  S
C2313      N2315   1.157       .  T
C2314      N2316   1.157       .  T
C2317      C2318   1.404       .  A
C2317      C2322   1.416       .  A
C2318      C2319   1.396       .  A
C2318      H2323   1.085       .  S
C2319      C2320   1.418       .  A
C2319      C2326   1.445       .  S
C2320      C2321   1.408       .  A
C2321      C2322   1.407       .  A
C2321      H2324   1.084       .  S
C2322      C2325   1.444       .  S
C2325      N2327   1.157       .  T
C2326      N2328   1.157       .  T
C2329      C2330   1.409       .  A
C2329      C2334   1.414       .  A
C2330      C2331   1.403       .  A
C2330      H2335   1.085       .  S
C2331      C2332   1.415       .  A
C2331      C2338   1.444       .  S
C2332      C2333   1.407       .  A
C2333      C2334   1.400       .  A
C2333      H2336   1.085   1_455  S
C2334      C2337   1.444       .  S
C2337      N2339   1.157       .  T
C2338      N2340   1.158       .  T
C2341      C2342   1.403       .  A
C2341      C2346   1.416       .  A
C2342      C2343   1.395       .  A
C2342      H2347   1.085       .  S
C2343      C2344   1.412       .  A
C2343      C2350   1.446       .  S
C2344      C2345   1.402       .  A
C2345      C2346   1.403       .  A
C2345      H2348   1.085       .  S
C2346      C2349   1.443       .  S
C2349      N2351   1.157       .  T
C2350      N2352   1.157       .  T
C2353      C2354   1.408       .  A
C2353      C2358   1.414       .  A
C2354      C2355   1.402       .  A
C2354      H2359   1.085       .  S
C2355      C2356   1.409       .  A
C2355      C2362   1.444       .  S
C2356      C2357   1.405       .  A
C2357      C2358   1.403       .  A
C2357      H2360   1.085       .  S
C2358      C2361   1.444       .  S
C2361      N2363   1.157       .  T
C2362      N2364   1.157       .  T
C2365      C2366   1.401       .  A
C2365      C2370   1.413       .  A
C2366      C2367   1.403       .  A
C2366      H2371   1.085       .  S
C2367      C2368   1.419       .  A
C2367      C2374   1.444       .  S
C2368      C2369   1.405       .  A
C2369      C2370   1.401       .  A
C2369      H2372   1.085       .  S
C2370      C2373   1.445       .  S
C2373      N2375   1.157       .  T
C2374      N2376   1.157       .  T
C2377      C2378   1.408       .  A
C2377      C2382   1.414       .  A
C2378      C2379   1.404       .  A
C2378      H2383   1.084       .  S
C2379      C2380   1.415       .  A
C2379      C2386   1.444       .  S
C2380      C2381   1.405       .  A
C2381      C2382   1.393       .  A
C2381      H2384   1.085       .  S
C2382      C2385   1.445       .  S
C2386      N2388   1.157       .  T
C2389      C2390   1.401       .  A
C2389      C2394   1.415       .  A
C2390      C2391   1.402       .  A
C2390      H2395   1.085       .  S
C2391      C2392   1.416       .  A
C2391      C2398   1.444       .  S
C2392      C2393   1.404       .  A
C2393      C2394   1.403       .  A
C2393      H2396   1.085       .  S
C2394      C2397   1.445       .  S
C2397      N2399   1.157       .  T
C2398      N2400   1.157       .  T
C2401      C2402   1.406       .  A
C2401      C2406   1.414       .  A
C2402      C2403   1.401       .  A
C2402      H2407   1.085       .  S
C2403      C2404   1.413       .  A
C2403      C2410   1.445       .  S
C2404      C2405   1.407       .  A
C2405      C2406   1.407       .  A
C2405      H2408   1.085       .  S
C2406      C2409   1.443       .  S
C2409      N2411   1.157       .  T
C2410      N2412   1.157       .  T
C2413      C2418   1.414       .  A
C2414      C2415   1.397   1_554  A
C2414      H2419   1.085   1_455  S
C2415      C2416   1.414       .  A
C2415      C2422   1.444       .  S
C2417      C2418   1.404       .  A
C2417      H2420   1.084       .  S
C2418      C2421   1.444       .  S
C2421      N2423   1.158       .  T
C2422      N2424   1.157       .  T
C2425      C2426   1.407       .  A
C2425      C2430   1.413       .  A
C2426      C2427   1.405       .  A
C2426      H2431   1.084       .  S
C2427      C2428   1.413       .  A
C2427      C2434   1.443       .  S
C2428      C2429   1.404       .  A
C2429      C2430   1.394       .  A
C2429      H2432   1.085       .  S
C2430      C2433   1.445       .  S
C2433      N2435   1.157       .  T
C2434      N2436   1.157       .  T
C2437      C2438   1.404       .  A
C2437      C2442   1.413       .  A
C2438      C2439   1.396       .  A
C2439      C2440   1.416       .  A
C2440      C2441   1.408       .  A
C2441      C2442   1.405       .  A
C2441      H2444   1.084       .  S
C2442      C2445   1.443       .  S
C2445      N2447   1.157       .  T
C2446      N2448   1.157       .  T
C2449      C2454   1.419       .  A
C2450      C2451   1.401       .  A
C2450      H2455   1.085       .  S
C2451      C2452   1.419       .  A
C2451      C2458   1.445       .  S
C2453      C2454   1.402   1_554  A
C2453      H2456   1.085   1_554  S
C2454      C2457   1.444       .  S
C2457      N2459   1.157       .  T
C2458      N2460   1.157       .  T
C2461      C2462   1.404       .  A
C2461      C2466   1.418       .  A
C2462      C2463   1.398       .  A
C2462      H2467   1.085       .  S
C2463      C2464   1.417       .  A
C2463      C2470   1.445       .  S
C2464      C2465   1.405       .  A
C2465      C2466   1.405       .  A
C2465      H2468   1.084       .  S
C2466      C2469   1.444       .  S
C2469      N2471   1.157       .  T
C2470      N2472   1.157       .  T
C2473      C2474   1.408       .  A
C2473      C2478   1.414       .  A
C2474      C2475   1.405       .  A
C2474      H2479   1.085       .  S
C2475      C2476   1.412       .  A
C2475      C2482   1.443       .  S
C2476      C2477   1.406       .  A
C2477      C2478   1.402       .  A
C2477      H2480   1.085       .  S
C2478      C2481   1.445       .  S
C2481      N2483   1.157       .  T
C2482      N2484   1.157       .  T
C2485      C2486   1.403       .  A
C2485      C2490   1.410       .  A
C2486      C2487   1.400       .  A
C2486      H2491   1.085       .  S
C2487      C2488   1.415       .  A
C2487      C2494   1.444       .  S
C2488      C2489   1.410       .  A
C2489      C2490   1.405       .  A
C2489      H2492   1.084       .  S
C2490      C2493   1.444       .  S
C2493      N2495   1.157       .  T
C2494      N2496   1.157       .  T
C2497      C2498   1.403       .  A
C2497      C2502   1.413       .  A
C2498      C2499   1.403       .  A
C2498      H2503   1.085       .  S
C2499      C2500   1.416       .  A
C2499      C2506   1.443       .  S
C2500      C2501   1.405       .  A
C2501      C2502   1.398       .  A
C2501      H2504   1.085       .  S
C2502      C2505   1.446       .  S
C2505      N2507   1.157       .  T
C2506      N2508   1.157       .  T
C2509      C2510   1.402       .  A
C2509      C2514   1.416       .  A
C2510      C2511   1.403       .  A
C2510      H2515   1.085       .  S
C2511      C2512   1.415       .  A
C2511      C2518   1.444       .  S
C2512      C2513   1.402       .  A
C2513      C2514   1.398       .  A
C2513      H2516   1.085       .  S
C2514      C2517   1.446       .  S
C2517      N2519   1.157       .  T
C2518      N2520   1.157       .  T
C2521      C2522   1.406       .  A
C2521      C2526   1.417       .  A
C2522      C2523   1.407       .  A
C2522      H2527   1.084       .  S
C2523      C2524   1.412       .  A
C2523      C2530   1.444       .  S
C2524      C2525   1.398       .  A
C2525      C2526   1.393       .  A
C2525      H2528   1.086       .  S
C2526      C2529   1.446       .  S
C2529      N2531   1.157       .  T
C2530      N2532   1.157       .  T
C2533      C2534   1.405       .  A
C2533      C2538   1.418       .  A
C2534      C2535   1.404       .  A
C2534      H2539   1.085       .  S
C2535      C2536   1.416       .  A
C2535      C2542   1.444       .  S
C2536      C2537   1.403       .  A
C2537      C2538   1.400       .  A
C2537      H2540   1.085       .  S
C2538      C2541   1.445       .  S
C2541      N2543   1.157       .  T
C2542      N2544   1.157       .  T
C2545      C2546   1.403       .  A
C2545      C2550   1.416       .  A
C2546      C2547   1.395       .  A
C2546      H2551   1.085       .  S
C2547      C2548   1.415       .  A
C2547      C2554   1.445       .  S
C2548      C2549   1.404       .  A
C2549      C2550   1.403       .  A
C2549      H2552   1.085       .  S
C2550      C2553   1.444       .  S
C2553      N2555   1.157       .  T
C2554      N2556   1.157       .  T
C2557      C2558   1.404       .  A
C2557      C2562   1.413       .  A
C2558      C2559   1.397       .  A
C2558      H2563   1.085       .  S
C2559      C2560   1.416       .  A
C2559      C2566   1.445       .  S
C2560      C2561   1.408       .  A
C2561      C2562   1.404       .  A
C2561      H2564   1.084       .  S
C2562      C2565   1.444       .  S
C2565      N2567   1.157       .  T
C2566      N2568   1.157       .  T
C2569      C2570   1.403       .  A
C2569      C2574   1.415       .  A
C2570      C2571   1.401   1_545  A
C2570      H2575   1.085       .  S
C2571      C2572   1.416       .  A
C2571      C2578   1.445       .  S
C2572      C2573   1.402   1_565  A
C2573      C2574   1.398       .  A
C2573      H2576   1.085       .  S
C2574      C2577   1.445       .  S
C2577      N2579   1.157       .  T
C2578      N2580   1.158       .  T
C2581      C2582   1.406       .  A
C2581      C2586   1.417       .  A
C2582      C2583   1.405       .  A
C2582      H2587   1.084       .  S
C2583      C2584   1.415       .  A
C2583      C2590   1.443       .  S
C2584      C2585   1.406       .  A
C2585      C2586   1.397       .  A
C2585      H2588   1.085       .  S
C2586      C2589   1.446       .  S
C2589      N2591   1.158       .  T
C2590      N2592   1.157       .  T
C2593      C2594   1.404       .  A
C2593      C2598   1.415       .  A
C2594      C2595   1.404       .  A
C2594      H2599   1.085       .  S
C2595      C2596   1.416       .  A
C2595      C2602   1.444       .  S
C2596      C2597   1.403       .  A
C2597      C2598   1.400       .  A
C2597      H2600   1.085       .  S
C2598      C2601   1.445       .  S
C2601      N2603   1.157       .  T
C2602      N2604   1.157       .  T
C2605      C2606   1.403       .  A
C2605      C2610   1.417       .  A
C2606      C2607   1.400       .  A
C2606      H2611   1.085       .  S
C2607      C2608   1.415       .  A
C2607      C2614   1.445       .  S
C2608      C2609   1.402       .  A
C2609      C2610   1.403       .  A
C2609      H2612   1.085       .  S
C2610      C2613   1.444       .  S
C2613      N2615   1.157       .  T
C2614      N2616   1.157       .  T
C2617      C2618   1.403       .  A
C2617      C2622   1.412       .  A
C2618      C2619   1.406       .  A
C2619      C2620   1.417       .  A
C2620      C2621   1.404       .  A
C2621      C2622   1.396       .  A
C2621      H2624   1.085       .  S
C2622      C2625   1.446       .  S
C2625      N2627   1.157       .  T
C2626      N2628   1.157       .  T
C2629      C2630   1.405       .  A
C2629      C2634   1.419       .  A
C2630      C2631   1.400       .  A
C2630      H2635   1.085       .  S
C2631      C2632   1.413       .  A
C2631      C2638   1.446       .  S
C2632      C2633   1.401       .  A
C2633      C2634   1.403       .  A
C2633      H2636   1.085       .  S
C2634      C2637   1.444       .  S
C2637      N2639   1.157       .  T
C2638      N2640   1.158       .  T
C2641      C2642   1.403       .  A
C2641      C2646   1.416       .  A
C2642      C2643   1.400       .  A
C2642      H2647   1.085       .  S
C2643      C2644   1.415       .  A
C2643      C2650   1.445       .  S
C2644      C2645   1.402       .  A
C2645      C2646   1.403       .  A
C2645      H2648   1.085       .  S
C2646      C2649   1.444       .  S
C2649      N2651   1.157       .  T
C2650      N2652   1.157       .  T
C2653      C2654   1.404   1_566  A
C2654      C2655   1.402       .  A
C2654      H2659   1.085       .  S
C2655      C2662   1.444       .  S
C2656      C2657   1.403       .  A
C2657      C2658   1.402       .  A
C2657      H2660   1.085       .  S
C2658      C2661   1.444   1_545  S
C2661      N2663   1.157       .  T
C2662      N2664   1.157       .  T
