geometry optimzed in LAMMPS
_audit_creation_date              2020-12-01 
_audit_creation_method            'lammps2cif' 
_symmetry_space_group_name_H-M    'P1' 
_symmetry_Int_Tables_number       1 
_symmetry_cell_setting            triclinic 
loop_ 
_symmetry_equiv_pos_as_xyz 
  x,y,z 
_cell_length_a                    31.81741253 
_cell_length_b                    32.748185562272376 
_cell_length_c                    33.350061859811014 
_cell_angle_alpha                 78.33480595051351 
_cell_angle_beta                  97.2386998801808 
_cell_angle_gamma                 94.74681683724509 
loop_ 
_atom_site_label 
_atom_site_type_symbol 
_atom_site_fract_x 
_atom_site_fract_y 
_atom_site_fract_z 
_atom_site_charge 
N1          N  0.96174628  0.04612689  0.50744205    -0.36100
N2          N  0.05163563  0.04924817  0.50840257    -0.56700
N3          N  0.04566890  0.95654164  0.50675763    -0.36100
N4          N  0.95574895  0.95330639  0.50554414    -0.56700
C5          C  0.96983433  0.08837082  0.50325310     0.27400
C6          C  0.91924525  0.03888123  0.49946165     0.27400
C7          C  0.08803392  0.96401083  0.51550578     0.27400
C8          C  0.03767016  0.91421586  0.51307365     0.27400
C9          C  0.04893940  0.09030663  0.50922149     0.36100
C10         C  0.09322671  0.04267634  0.50971681     0.36100
C11         C  0.91396577  0.96057223  0.50074250     0.36100
C12         C  0.95867006  0.91262653  0.50314850     0.36100
C13         C  0.93175074  0.10768839  0.49281517    -0.21400
C14         C  0.90013356  0.07678368  0.49072873    -0.21400
C15         C  0.10717095  0.92621348  0.52731995    -0.21400
C16         C  0.07560519  0.89504958  0.52622864    -0.21400
C17         C  0.08940137  0.10959026  0.51166666    -0.22500
C18         C  0.11715577  0.07984457  0.51110972    -0.22500
C19         C  0.89018835  0.92405464  0.49585953    -0.22500
C20         C  0.91829562  0.89412874  0.49664173    -0.22500
C21         C  0.01041210  0.11051406  0.50714933    -0.17800
C22         C  0.89630986  0.99954647  0.49933709    -0.17800
C23         C  0.99732905  0.89213739  0.50713699    -0.17800
C24         C  0.11080514  0.00362074  0.51210097    -0.17800
H25         H  0.92696738  0.14079672  0.48595675     0.15100
H26         H  0.86671746  0.08192763  0.48249704     0.15100
H27         H  0.14055543  0.92147018  0.53644505     0.15100
H28         H  0.08029589  0.86195765  0.53492358     0.15100
H29         H  0.09867586  0.14145220  0.51442123     0.13400
H30         H  0.15134109  0.08485597  0.51310031     0.13400
H31         H  0.85599976  0.91953279  0.49099328     0.13400
H32         H  0.90951992  0.86267545  0.49208950     0.13400
H33         H  0.98296336  0.02291077  0.51793255     0.26600
H34         H  0.02471529  0.97940135  0.49330367     0.26600
O35         O  0.10610224  0.54446720  0.50501146    -0.80400
O36         O  0.91503587  0.51683268  0.52511656    -0.65100
O37         O  0.03283394  0.49873459  0.53224077    -1.11700
C38         C  0.99804317  0.47593688  0.39531330     1.06500
O39         O  0.89725338  0.46026692  0.49842215    -0.78300
O40         O  0.95700865  0.41283553  0.48447194    -0.65900
Ni41       Ni  0.07436784  0.53810872  0.55184047     1.34900
C42         C  0.99556821  0.40398602  0.49263126     0.85200
O43         O  0.97848215  0.51230585  0.58772101    -0.78900
O44         O  0.04690510  0.53426944  0.60101047    -0.89100
C45         C  0.88730397  0.49006571  0.51394228     0.84800
O46         O  0.04871241  0.58968968  0.52757109    -0.67300
O47         O  0.96194090  0.46233782  0.40721924    -0.86600
C48         C  0.01031178  0.59861570  0.51724214     0.85600
C49         C  0.00980401  0.52360719  0.61188288     1.07200
H50         H  0.96755013  0.53028157  0.45581381     0.39000
O51         O  0.97265097  0.50354517  0.47352275    -1.09300
O52         O  0.02599381  0.43215743  0.48974955    -0.65900
Ni53       Ni  0.03129012  0.49353656  0.47575057     1.26300
O54         O  0.98005998  0.57045834  0.51596426    -0.66200
O55         O  0.02788167  0.49111118  0.41826830    -0.78500
C56         C  0.11739941  0.51465449  0.49036676     0.85000
O57         O  0.09063513  0.48647764  0.48071310    -0.65600
Ni58       Ni  0.93212050  0.46289425  0.45443979     1.27400
Ni59       Ni  0.97441530  0.50919206  0.53011928     1.26100
H60         H  0.03751666  0.47177349  0.54967889     0.39500
O61         O  0.45935635  0.00256508  0.40067062    -0.80400
O62         O  0.48217396  0.02559226  0.58119279    -0.65100
O63         O  0.50351254  0.02970069  0.46948391    -1.11700
C64         C  0.53440370  0.89023629  0.52231553     1.06500
O65         O  0.54464734  0.99994427  0.60245665    -0.78300
O66         O  0.59322044  0.97391404  0.55310755    -0.65900
Ni67       Ni  0.46471249  0.05212888  0.42379248     1.34900
C68         C  0.60193441  0.98495598  0.51622299     0.85200
O69         O  0.48050028  0.08605284  0.51308203    -0.78900
O70         O  0.46859991  0.10311829  0.44351582    -0.89100
C71         C  0.51193398  0.01559700  0.60992509     0.84800
O72         O  0.41291376  0.03529529  0.44729527    -0.67300
O73         O  0.54341635  0.90069330  0.55737586    -0.86600
C74         C  0.40358653  0.02126327  0.48360872     0.85600
C75         C  0.47397292  0.11210572  0.47932863     1.07200
H76         H  0.47649223  0.95485117  0.53714006     0.39000
O77         O  0.50254148  0.97165942  0.53267583    -1.09900
O78         O  0.57428649  0.98546141  0.48511141    -0.65900
Ni79       Ni  0.51379452  0.97232156  0.47739064     1.26300
O80         O  0.43109056  0.01501822  0.51498728    -0.66200
O81         O  0.52348053  0.91495923  0.48863002    -0.78500
C82         C  0.49121164  0.98667978  0.39187554     0.85000
O83         O  0.52099983  0.97497210  0.42008990    -0.65600
Ni84       Ni  0.54319864  0.95136018  0.57768993     1.27400
Ni85       Ni  0.49112429  0.02874900  0.52433364     1.26100
H86         H  0.53005914  0.04591297  0.46601801     0.39500
N87         N  0.50608647  0.95231557  0.05243725    -0.36100
N88         N  0.49590279  0.04125378  0.03902422    -0.56700
N89         N  0.50055574  0.04788723  0.94960776    -0.36100
N90         N  0.50501491  0.95833277  0.96226000    -0.56700
C91         C  0.49933189  0.95558951  0.09106006     0.27400
C92         C  0.50152402  0.91130962  0.05027303     0.27400
C93         C  0.49083015  0.08717073  0.95016213     0.27400
C94         C  0.49551102  0.04332855  0.90969730     0.27400
C95         C  0.50133568  0.03333935  0.08079792     0.36100
C96         C  0.49808346  0.08328454  0.02683305     0.36100
C97         C  0.50997714  0.91690494  0.97502821     0.36100
C98         C  0.50847617  0.96737528  0.92121489     0.36100
C99         C  0.49144345  0.91604151  0.11398224    -0.21400
C100        C  0.49299837  0.88819687  0.08845016    -0.21400
C101        C  0.48017845  0.10810265  0.91006816    -0.21400
C102        C  0.48346396  0.08065722  0.88461498    -0.21400
C103        C  0.50676580  0.07052536  0.09509097    -0.22500
C104        C  0.50472394  0.10205249  0.06104693    -0.22500
C105        C  0.51586295  0.89946451  0.94164048    -0.22500
C106        C  0.51499318  0.93129613  0.90776423    -0.22500
C107        C  0.50026542  0.99311809  0.10642611    -0.17800
C108        C  0.50632982  0.89376159  0.01552999    -0.17800
C109        C  0.50292850  0.00704589  0.89507963    -0.17800
C110        C  0.49261030  0.10538440  0.98549035    -0.17800
H111        H  0.48490947  0.90795196  0.14578378     0.15100
H112        H  0.48830393  0.85463932  0.09727445     0.15100
H113        H  0.47109978  0.14000372  0.89999814     0.15100
H114        H  0.47759227  0.08771151  0.85136776     0.15100
H115        H  0.51209228  0.07465324  0.12675156     0.13400
H116        H  0.50811380  0.13510362  0.06155245     0.13400
H117        H  0.51956124  0.86698498  0.94135188     0.13400
H118        H  0.51780039  0.92790306  0.87662407     0.13400
H119        H  0.51674498  0.97612642  0.02990959     0.26600
H120        H  0.51376214  0.02707417  0.97472601     0.26600
N121        N  0.95254444  0.49426248  0.04379031    -0.36100
N122        N  0.04478229  0.49250219  0.05125769    -0.56700
N123        N  0.04072388  0.50487092  0.96082600    -0.36100
N124        N  0.94845822  0.50557858  0.95337133    -0.56700
C125        C  0.96119600  0.49282632  0.08499843     0.27400
C126        C  0.91052888  0.50003738  0.03341786     0.27400
C127        C  0.08173290  0.49507149  0.97179008     0.27400
C128        C  0.03097607  0.50195722  0.92060013     0.27400
C129        C  0.04043209  0.48786335  0.09187776     0.36100
C130        C  0.08668436  0.49134906  0.04821659     0.36100
C131        C  0.90724438  0.51070404  0.95617447     0.36100
C132        C  0.95351589  0.51411231  0.91275421     0.36100
C133        C  0.92389674  0.49742367  0.10083172    -0.21400
C134        C  0.89210183  0.50153225  0.06857720    -0.21400
C135        C  0.09826105  0.48639353  0.93808775    -0.21400
C136        C  0.06632299  0.49037709  0.90606241    -0.21400
C137        C  0.07991667  0.48314399  0.11470000    -0.22500
C138        C  0.10909291  0.48593724  0.08716570    -0.22500
C139        C  0.88607020  0.52273365  0.91709522    -0.22500
C140        C  0.91537551  0.52530389  0.88970728    -0.22500
C141        C  0.00163452  0.48807861  0.10892576    -0.17800
C142        C  0.88810222  0.50535599  0.99319492    -0.17800
C143        C  0.99154154  0.51027251  0.89607737    -0.17800
C144        C  0.10511760  0.49321285  0.01121710    -0.17800
H145        H  0.91980318  0.49861830  0.13226542     0.15100
H146        H  0.85925103  0.50624215  0.07073658     0.15100
H147        H  0.12989954  0.47718007  0.93685446     0.15100
H148        H  0.06889936  0.48478937  0.87560559     0.15100
H149        H  0.08729837  0.47799803  0.14781222     0.13400
H150        H  0.14293205  0.48355769  0.09521581     0.13400
H151        H  0.85302466  0.52959134  0.90907590     0.13400
H152        H  0.90907705  0.53449452  0.85660236     0.13400
H153        H  0.97347680  0.48942544  0.02414125     0.26600
H154        H  0.02190840  0.51654261  0.97865255     0.26600
O155        O  0.53540300  0.59943148  0.99397575    -0.80400
O156        O  0.50967476  0.41807534  0.96842548    -0.65100
O157        O  0.48939503  0.53053517  0.97057648    -1.11700
C158        C  0.48981469  0.47608699  0.11399978     1.06500
O159        O  0.45574711  0.39771117  0.00486109    -0.78300
O160        O  0.41665939  0.44321541  0.04542224    -0.65900
Ni161      Ni  0.52327633  0.57636033  0.94488292     1.34900
C162        C  0.40368702  0.47946172  0.03165047     0.85200
O163        O  0.49879711  0.48682076  0.90943398    -0.78900
O164        O  0.51313129  0.55657214  0.89394579    -0.89100
C165        C  0.48198237  0.39028023  0.98191905     0.84800
O166        O  0.57688525  0.55260795  0.95763702    -0.67300
O167        O  0.48368402  0.43980168  0.10500845    -0.86600
C168        C  0.58888925  0.51571805  0.96835456     0.85600
C169        C  0.50357423  0.52109307  0.88381192     1.07200
H170        H  0.53212689  0.46332274  0.03884519     0.39000
O171        O  0.50308093  0.46661740  0.02670375    -1.09300
O172        O  0.42854845  0.51160822  0.02238295    -0.65900
Ni173      Ni  0.48972658  0.52162629  0.02878851     1.26300
O174        O  0.56312293  0.48364458  0.97329316    -0.66200
O175        O  0.49119960  0.51013863  0.08746742    -0.78500
C176        C  0.50751417  0.60705360  0.01506271     0.85000
O177        O  0.47989784  0.57883415  0.02799654    -0.65600
Ni178      Ni  0.47078279  0.42027304  0.05405181     1.27400
Ni179      Ni  0.50157222  0.47528255  0.96820664     1.26100
H180        H  0.46066360  0.53471091  0.95784326     0.39500
O181        O  0.52347414  0.61095462  0.46304336    -0.80400
O182        O  0.51943308  0.41555474  0.48498624    -0.65100
O183        O  0.49432093  0.52889395  0.46619955    -1.11700
C184        C  0.47408980  0.50368458  0.60470080     1.06500
O185        O  0.47997716  0.39058635  0.53631058    -0.78300
O186        O  0.42271121  0.45095442  0.51938476    -0.65900
Ni187      Ni  0.53309185  0.56743303  0.43597293     1.34900
C188        C  0.40963717  0.48762701  0.51106524     0.85200
O189        O  0.50426946  0.47228079  0.41789563    -0.78900
O190        O  0.54540038  0.52997135  0.40193680    -0.89100
C191        C  0.50357953  0.38592005  0.50992010     0.84800
O192        O  0.58067570  0.55138570  0.47521780    -0.67300
O193        O  0.45286419  0.47277626  0.59327824    -0.86600
C194        C  0.59323926  0.51455241  0.48449505     0.85600
C195        C  0.52496997  0.49763643  0.39263505     1.07200
H196        H  0.53607238  0.46940056  0.54695941     0.39000
O197        O  0.50796697  0.47303888  0.53248607    -1.09300
O198        O  0.43364685  0.51936482  0.51758277    -0.65900
Ni199      Ni  0.49499854  0.52984899  0.52357493     1.26300
O200        O  0.56849373  0.48266446  0.48010900    -0.66200
O201        O  0.49686772  0.52882238  0.58112907    -0.78500
C202        C  0.50035782  0.61610211  0.48969609     0.85000
O203        O  0.48327898  0.58664349  0.51398694    -0.65600
Ni204      Ni  0.46795181  0.43474909  0.56134682     1.27400
Ni205      Ni  0.50718674  0.47206905  0.47518262     1.26100
H206        H  0.46609715  0.53222275  0.45188880     0.39500
C207        C  0.47824442  0.49827520  0.78342082     0.20800
C208        C  0.46323690  0.47409484  0.75394670    -0.39100
C209        C  0.46695648  0.49350784  0.71305066     0.19800
C210        C  0.48461663  0.53376769  0.70224511     0.22400
C211        C  0.49906240  0.55818184  0.73173221    -0.39600
C212        C  0.49506540  0.53885736  0.77266741     0.21200
N213        N  0.47960136  0.48652774  0.82444813    -0.32900
C214        C  0.49712323  0.52002366  0.83983534    -0.10400
C215        C  0.50703608  0.55331839  0.80854542    -0.29200
N216        N  0.48785609  0.54360868  0.66161845    -0.45800
C217        C  0.47194387  0.50933871  0.64670522    -0.05100
C218        C  0.45816086  0.47769874  0.67770631    -0.22500
H219        H  0.45055005  0.44220597  0.76229485     0.19300
H220        H  0.51330828  0.58947381  0.72352302     0.18100
H221        H  0.52145709  0.58378977  0.81168800     0.14400
H222        H  0.44590124  0.44638620  0.67510429     0.14300
H223        H  0.46911644  0.45763874  0.84091065     0.32400
H224        H  0.50152696  0.57112998  0.64540398     0.35200
C225        C  0.52609273  0.50525507  0.28522007     0.20800
C226        C  0.52885732  0.52634630  0.24467830    -0.39100
C227        C  0.51446173  0.50320519  0.21424912     0.19800
C228        C  0.49886619  0.46203876  0.22341803     0.22400
C229        C  0.49555031  0.44105264  0.26405979    -0.39600
C230        C  0.50962973  0.46439323  0.29459421     0.21200
N231        N  0.53591557  0.52112685  0.31939823    -0.32900
C232        C  0.52492613  0.49049911  0.35075448    -0.10400
C233        C  0.50859768  0.45448238  0.33663508    -0.29200
N234        N  0.48783324  0.44694602  0.18878554    -0.45800
C235        C  0.49622639  0.47897032  0.15756296    -0.05100
C236        C  0.51262823  0.51458465  0.17219980    -0.22500
H237        H  0.54090096  0.55856056  0.23735708     0.19300
H238        H  0.48253724  0.40917187  0.27131621     0.18100
H239        H  0.49601324  0.42572045  0.35444595     0.14400
H240        H  0.52249278  0.54453910  0.15446113     0.14300
H241        H  0.54725151  0.55168991  0.32101423     0.32400
H242        H  0.47533588  0.41687099  0.18652366     0.35200
C243        C  0.70215101  0.52993772  0.97888088     0.20800
C244        C  0.74119860  0.55323708  0.97956529    -0.39100
C245        C  0.77730221  0.53039175  0.98345041     0.19800
C246        C  0.77470123  0.48751238  0.98631199     0.22400
C247        C  0.73548139  0.46412884  0.98559224    -0.39600
C248        C  0.69921179  0.48706076  0.98185510     0.21200
N249        N  0.66347748  0.54473471  0.97465474    -0.32900
C250        C  0.63526805  0.51130629  0.97484145    -0.10400
C251        C  0.65637191  0.47452884  0.97952589    -0.29200
N252        N  0.81373803  0.47323842  0.98993729    -0.45800
C253        C  0.84121609  0.50724576  0.98948842    -0.05100
C254        C  0.81972347  0.54351273  0.98538613    -0.22500
H255        H  0.74327889  0.58678703  0.97716272     0.19300
H256        H  0.73338637  0.43061700  0.98774168     0.18100
H257        H  0.64233412  0.44319522  0.98008264     0.14400
H258        H  0.83336375  0.57506385  0.98420282     0.14300
H259        H  0.65667841  0.57600572  0.97122265     0.32400
H260        H  0.82136012  0.44229648  0.99276320     0.35200
C261        C  0.21773722  0.50771412  0.00615000     0.20800
C262        C  0.25642907  0.52939292  0.99661330    -0.39100
C263        C  0.29306485  0.50698819  0.01041713     0.19800
C264        C  0.29098381  0.46607956  0.03168846     0.22400
C265        C  0.25243799  0.44446461  0.04114126    -0.39600
C266        C  0.21599176  0.46689466  0.02770586     0.21200
N267        N  0.17858310  0.52216209  0.99740268    -0.32900
C268        C  0.15190644  0.49047780  0.01394106    -0.10400
C269        C  0.17404088  0.45535831  0.03279706    -0.29200
N270        N  0.32990580  0.45161664  0.04161317    -0.45800
C271        C  0.35733569  0.48341234  0.02683720    -0.05100
C272        C  0.33555086  0.51865411  0.00715376    -0.22500
H273        H  0.25792144  0.56142838  0.98007901     0.19300
H274        H  0.25099287  0.41259237  0.05811196     0.18100
H275        H  0.16112961  0.42559049  0.04835331     0.14400
H276        H  0.34892094  0.54857874  0.99243857     0.14300
H277        H  0.17044103  0.55185920  0.98158632     0.32400
H278        H  0.33736505  0.42182293  0.05774690     0.35200
C279        C  0.52855276  0.78668058  0.02437643     0.20800
C280        C  0.55284967  0.75352735  0.02244442    -0.39100
C281        C  0.53109411  0.71423471  0.02588103     0.19800
C282        C  0.48837583  0.70812293  0.03107629     0.22400
C283        C  0.46393502  0.74145078  0.03276373    -0.39600
C284        C  0.48571924  0.78092872  0.02917594     0.21200
N285        N  0.54146436  0.82726691  0.01991092    -0.32900
C286        C  0.50662804  0.84761653  0.02174572    -0.10400
C287        C  0.47119667  0.81984554  0.02749335    -0.29200
N288        N  0.47473416  0.66811200  0.03075443    -0.45800
C289        C  0.50898857  0.64903775  0.02466343    -0.05100
C290        C  0.54465383  0.67675580  0.02175565    -0.22500
H291        H  0.58600685  0.75817640  0.01742378     0.19300
H292        H  0.43026044  0.73716201  0.03555881     0.18100
H293        H  0.43904433  0.82734839  0.02912873     0.14400
H294        H  0.57578766  0.67080108  0.01515102     0.14300
H295        H  0.57182595  0.84051884  0.01490748     0.32400
H296        H  0.44363108  0.65530402  0.03191837     0.35200
C297        C  0.46012329  0.28361864  0.97584767     0.20800
C298        C  0.44115494  0.24366932  0.98808075    -0.39100
C299        C  0.46228853  0.21076930  0.98046525     0.19800
C300        C  0.49936811  0.21712499  0.96172754     0.22400
C301        C  0.51835347  0.25722736  0.94934638    -0.39600
C302        C  0.49732660  0.29026721  0.95729272     0.21200
N303        N  0.44871929  0.31920335  0.98407010    -0.32900
C304        C  0.47911374  0.34874022  0.97138284    -0.10400
C305        C  0.50968401  0.33215019  0.95377555    -0.29200
N306        N  0.51450718  0.18042371  0.96030672    -0.45800
C307        C  0.48701208  0.15075823  0.97862886    -0.05100
C308        C  0.45389854  0.16841643  0.99134698    -0.22500
H309        H  0.41299845  0.23847226  0.00401126     0.19300
H310        H  0.54819259  0.26216354  0.93617460     0.18100
H311        H  0.53870757  0.34775799  0.94311641     0.14400
H312        H  0.42798237  0.15233681  0.00746528     0.14300
H313        H  0.42335634  0.32253784  0.00000961     0.32400
H314        H  0.54243286  0.17573204  0.94884741     0.35200
C315        C  0.52442254  0.79329892  0.49234541     0.20800
C316        C  0.51959759  0.76692244  0.46409763    -0.39100
C317        C  0.50592615  0.72605300  0.47952671     0.19800
C318        C  0.49724566  0.71229503  0.51994186     0.22400
C319        C  0.50181930  0.73895767  0.54829408    -0.39600
C320        C  0.51603889  0.77999959  0.53288099     0.21200
N321        N  0.53569668  0.83392728  0.48461199    -0.32900
C322        C  0.53416794  0.84666491  0.52037070    -0.10400
C323        C  0.52270379  0.81400713  0.55150670    -0.29200
N324        N  0.48960216  0.67078730  0.52790369    -0.45800
C325        C  0.49478980  0.65867107  0.49249643    -0.05100
C326        C  0.50382447  0.69219132  0.46146010    -0.22500
H327        H  0.52699065  0.77722917  0.43269023     0.19300
H328        H  0.49582711  0.72833971  0.58007820     0.18100
H329        H  0.51670008  0.81566377  0.58236044     0.14400
H330        H  0.51208437  0.69139387  0.43111239     0.14300
H331        H  0.54161478  0.85229935  0.45617637     0.32400
H332        H  0.48553704  0.65170692  0.55647086     0.35200
C333        C  0.48598231  0.20855864  0.51032192     0.20800
C334        C  0.49185168  0.23501262  0.53852895    -0.39100
C335        C  0.50377758  0.27619710  0.52226207     0.19800
C336        C  0.51006388  0.28999557  0.48116654     0.22400
C337        C  0.50436153  0.26331859  0.45292634    -0.39600
C338        C  0.49175042  0.22212922  0.46912728     0.21200
N339        N  0.47554410  0.16777721  0.51842842    -0.32900
C340        C  0.47511046  0.15541255  0.48217084    -0.10400
C341        C  0.48427898  0.18833735  0.45045662    -0.29200
N342        N  0.51572421  0.33158942  0.47243324    -0.45800
C343        C  0.51137404  0.34377735  0.50794808    -0.05100
C344        C  0.50517307  0.31029853  0.53992054    -0.22500
H345        H  0.48612976  0.22460317  0.57042030     0.19300
H346        H  0.50811105  0.27408879  0.42061064     0.18100
H347        H  0.48807252  0.18710072  0.41892400     0.14400
H348        H  0.49786501  0.31110918  0.57059055     0.14300
H349        H  0.47124318  0.14921155  0.54719760     0.32400
H350        H  0.51743214  0.35050736  0.44335496     0.35200
C351        C  0.48591692  0.02081278  0.78401505     0.20800
C352        C  0.46297218  0.02736573  0.74438963    -0.39100
C353        C  0.48627284  0.02625192  0.71135902     0.19800
C354        C  0.52908116  0.01915342  0.71763766     0.22400
C355        C  0.55197377  0.01293915  0.75705787    -0.39600
C356        C  0.52877560  0.01397855  0.78990592     0.21200
N357        N  0.47104249  0.01896613  0.82052119    -0.32900
C358        C  0.50469688  0.01092706  0.84980819    -0.10400
C359        C  0.54125268  0.00769688  0.83178495    -0.29200
N360        N  0.54348598  0.01657219  0.68209550    -0.45800
C361        C  0.50987266  0.02191346  0.65252879    -0.05100
C362        C  0.47351757  0.02848200  0.66957406    -0.22500
H363        H  0.42928671  0.03199851  0.73973476     0.19300
H364        H  0.58529807  0.00669822  0.76190237     0.18100
H365        H  0.57266837  0.00137802  0.84733894     0.14400
H366        H  0.44166872  0.03194921  0.65403203     0.14300
H367        H  0.43987968  0.02264208  0.82532967     0.32400
H368        H  0.57415551  0.00984165  0.67848226     0.35200
C369        C  0.47597806  0.99353499  0.28225040     0.20800
C370        C  0.45608138  0.00635662  0.24206077    -0.39100
C371        C  0.47651044  0.99736908  0.21019387     0.19800
C372        C  0.51397613  0.97708198  0.21771121     0.22400
C373        C  0.53413353  0.96453576  0.25804644    -0.39600
C374        C  0.51363950  0.97357127  0.29007725     0.21200
N375        N  0.46310449  0.99923633  0.31747910    -0.32900
C376        C  0.49269713  0.98313554  0.34836413    -0.10400
C377        C  0.52485473  0.96671815  0.33244361    -0.29200
N378        N  0.52699396  0.97244090  0.18199545    -0.45800
C379        C  0.49778077  0.99018313  0.15151094    -0.05100
C380        C  0.46576799  0.00597337  0.16803628    -0.22500
H381        H  0.42686138  0.02239629  0.23603081     0.19300
H382        H  0.56369333  0.94908574  0.26402295     0.18100
H383        H  0.55302354  0.95262107  0.34938597     0.14400
H384        H  0.43846726  0.02186698  0.15133079     0.14300
H385        H  0.43617081  0.01423375  0.32022477     0.32400
H386        H  0.55436388  0.95860236  0.17844799     0.35200
C387        C  0.70558829  0.52213698  0.51221836     0.20800
C388        C  0.74594143  0.54226114  0.51883706    -0.39100
C389        C  0.78063210  0.51773311  0.52073611     0.19800
C390        C  0.77531620  0.47652332  0.51596922     0.22400
C391        C  0.73512578  0.45640631  0.50967251    -0.39600
C392        C  0.70058836  0.48071629  0.50818279     0.21200
N393        N  0.66770785  0.53924569  0.50605278    -0.32900
C394        C  0.63853060  0.50838692  0.49815407    -0.10400
C395        C  0.65787269  0.47137024  0.49960335    -0.29200
N396        N  0.81284908  0.46107240  0.51510818    -0.45800
C397        C  0.84249304  0.49250140  0.51938994    -0.05100
C398        C  0.82371960  0.52830905  0.52347424    -0.22500
H399        H  0.75003495  0.57493226  0.52093607     0.19300
H400        H  0.73106017  0.42453369  0.50487635     0.18100
H401        H  0.64290897  0.44224665  0.49284150     0.14400
H402        H  0.83920088  0.55868757  0.52528544     0.14300
H403        H  0.66221837  0.57035947  0.50557944     0.32400
H404        H  0.81782676  0.43148763  0.51000456     0.35200
C405        C  0.22172408  0.48842774  0.48073855     0.20800
C406        C  0.25409339  0.46160784  0.48130132    -0.39100
C407        C  0.29563727  0.47959347  0.48506432     0.19800
C408        C  0.30418799  0.52114203  0.48786151     0.22400
C409        C  0.27188032  0.54781732  0.48763169    -0.39600
C410        C  0.23043902  0.52981118  0.48409670     0.21200
N411        N  0.17990076  0.47828895  0.48039502    -0.32900
C412        C  0.16208335  0.51332532  0.48417932    -0.10400
C413        C  0.19255235  0.54613568  0.48638483    -0.29200
N414        N  0.34613604  0.52982036  0.49462414    -0.45800
C415        C  0.36450805  0.49343591  0.49681349    -0.05100
C416        C  0.33405362  0.46146211  0.49055007    -0.22500
H417        H  0.24749487  0.42882414  0.48040467     0.19300
H418        H  0.27860172  0.57981995  0.49151513     0.18100
H419        H  0.18784115  0.57716219  0.49095432     0.14400
H420        H  0.33914987  0.42880024  0.49258445     0.14300
H421        H  0.16473172  0.44883167  0.47985680     0.32400
H422        H  0.36113785  0.55807897  0.50014049     0.35200
C423        C  0.98032450  0.51015553  0.71460965     0.20800
C424        C  0.95889830  0.49202544  0.74897299    -0.39100
C425        C  0.97455034  0.50474627  0.78623429     0.19800
C426        C  0.00856063  0.53365220  0.78883122     0.22400
C427        C  0.03006436  0.55151409  0.75467294    -0.39600
C428        C  0.01483000  0.53843099  0.71769005     0.21200
N429        N  0.97300848  0.50208600  0.67614226    -0.32900
C430        C  0.00356803  0.52489086  0.65487409    -0.10400
C431        C  0.03010554  0.54797209  0.67984170    -0.29200
N432        N  0.01809285  0.53984262  0.82765832    -0.45800
C433        C  0.99029858  0.51448983  0.85039692    -0.05100
C434        C  0.96258529  0.49201696  0.82552722    -0.22500
H435        H  0.93257354  0.46909679  0.74704284     0.19300
H436        H  0.05733794  0.57331988  0.75695290     0.18100
H437        H  0.05748390  0.56840021  0.67158559     0.14400
H438        H  0.93770864  0.46883518  0.83512340     0.14300
H439        H  0.94967316  0.48127280  0.66544140     0.32400
H440        H  0.04252007  0.55969276  0.83824392     0.35200
C441        C  0.99351910  0.45876164  0.29183984     0.20800
C442        C  0.97685993  0.44165449  0.25733085    -0.39100
C443        C  0.99162981  0.46104949  0.21973765     0.19800
C444        C  0.02059281  0.49513185  0.21663906     0.22400
C445        C  0.03784673  0.51184909  0.25132988    -0.39600
C446        C  0.02330745  0.49219397  0.28909478     0.21200
N447        N  0.98205571  0.44792874  0.33023408    -0.32900
C448        C  0.00479983  0.47434864  0.35245441    -0.10400
C449        C  0.03137708  0.50212477  0.32791866    -0.29200
N450        N  0.02777044  0.50917779  0.17709018    -0.45800
C451        C  0.00351099  0.48364889  0.15477922    -0.05100
C452        C  0.98069081  0.45310066  0.18051385    -0.22500
H453        H  0.95323041  0.41579263  0.25941017     0.19300
H454        H  0.06015111  0.53880676  0.24892508     0.18100
H455        H  0.05181605  0.52772588  0.33665138     0.14400
H456        H  0.95855454  0.42875861  0.17154995     0.14300
H457        H  0.95908906  0.42476563  0.34040955     0.32400
H458        H  0.04752106  0.53494033  0.16583497     0.35200
C459        C  0.29979406  0.00901465  0.51661691     0.20800
C460        C  0.26892254  0.00811745  0.54355067    -0.39100
C461        C  0.22650542  0.00649591  0.52569768     0.19800
C462        C  0.21589895  0.00589418  0.48423001     0.22400
C463        C  0.24664968  0.00730980  0.45733718    -0.39600
C464        C  0.28885636  0.00888278  0.47513250     0.21200
N465        N  0.34228151  0.01147662  0.52551880    -0.32900
C466        C  0.35829211  0.01332083  0.48929409    -0.10400
C467        C  0.32589045  0.01177041  0.45725464    -0.29200
N468        N  0.17366502  0.00436016  0.47461853    -0.45800
C469        C  0.15709264  0.00416598  0.51005555    -0.05100
C470        C  0.18893244  0.00549767  0.54274193    -0.22500
H471        H  0.27729225  0.00878195  0.57590036     0.19300
H472        H  0.23830466  0.00740712  0.42483575     0.18100
H473        H  0.32903334  0.01373866  0.42496504     0.14400
H474        H  0.18502593  0.00590276  0.57442190     0.14300
H475        H  0.35928014  0.01342056  0.55405523     0.32400
H476        H  0.15699476  0.00387167  0.44564113     0.35200
C477        C  0.70648367  0.00082414  0.48434453     0.20800
C478        C  0.73868257  0.99798825  0.45976942    -0.39100
C479        C  0.78058754  0.00022819  0.47912196     0.19800
C480        C  0.78943163  0.00531907  0.51961166     0.22400
C481        C  0.75748075  0.00835407  0.54391085    -0.39600
C482        C  0.71587540  0.00568929  0.52483618     0.21200
N483        N  0.66414551  0.99559321  0.47489174    -0.32900
C484        C  0.64682451  0.99646720  0.50992565    -0.10400
C485        C  0.67817217  0.00319517  0.54144308    -0.29200
N486        N  0.83126363  0.00518878  0.53155131    -0.45800
C487        C  0.84954566  0.99964993  0.49872611    -0.05100
C488        C  0.81907345  0.99669288  0.46516056    -0.22500
H489        H  0.73160442  0.99300892  0.42845395     0.19300
H490        H  0.76447799  0.01111615  0.57589738     0.18100
H491        H  0.67408715  0.00348881  0.57311747     0.14400
H492        H  0.82442132  0.99244356  0.43489604     0.14300
H493        H  0.64828537  0.98902873  0.44732177     0.32400
H494        H  0.84660456  0.00845592  0.56042017     0.35200
C495        C  0.98008760  0.77849142  0.51624060     0.20800
C496        C  0.96220987  0.73773422  0.53006295    -0.39100
C497        C  0.97943508  0.70461831  0.51714177     0.19800
C498        C  0.01269099  0.71159873  0.49316970     0.22400
C499        C  0.03005952  0.75228857  0.47890354    -0.39600
C500        C  0.01222668  0.78535456  0.49102787     0.21200
N501        N  0.97055463  0.81495657  0.52535253    -0.32900
C502        C  0.99623486  0.84581032  0.50523788    -0.10400
C503        C  0.02248144  0.82804433  0.48334176    -0.29200
N504        N  0.02619831  0.67499594  0.48827695    -0.45800
C505        C  0.00099343  0.64397998  0.50843432    -0.05100
C506        C  0.97118948  0.66146490  0.52667939    -0.22500
H507        H  0.93719982  0.73211285  0.55004878     0.19300
H508        H  0.05625218  0.75776772  0.46032367     0.18100
H509        H  0.04651287  0.84422193  0.46470812     0.14400
H510        H  0.94869217  0.64476322  0.54683978     0.14300
H511        H  0.94870831  0.81832419  0.54517605     0.32400
H512        H  0.05219924  0.67123974  0.47339286     0.35200
C513        C  0.02481305  0.29919970  0.49509729     0.20800
C514        C  0.04222846  0.26791501  0.47968492    -0.39100
C515        C  0.02711173  0.22628357  0.49369950     0.19800
C516        C  0.99743205  0.21645889  0.52151191     0.22400
C517        C  0.97923973  0.24778730  0.53617127    -0.39600
C518        C  0.99381681  0.28947934  0.52162016     0.21200
N519        N  0.03198197  0.34110833  0.48450350    -0.32900
C520        C  0.00471572  0.35865683  0.50349802    -0.10400
C521        C  0.98031270  0.32716783  0.52688230    -0.29200
N522        N  0.98844037  0.17470808  0.53014473    -0.45800
C523        C  0.01196412  0.15719749  0.50731010    -0.05100
C524        C  0.03614862  0.18894778  0.48376371    -0.22500
H525        H  0.06532240  0.27551933  0.45770141     0.19300
H526        H  0.95477999  0.24030055  0.55673943     0.18100
H527        H  0.95450198  0.33131405  0.54367010     0.14400
H528        H  0.05705625  0.18540780  0.46165230     0.14300
H529        H  0.05195283  0.35689918  0.46310797     0.32400
H530        H  0.96731413  0.15899605  0.55043054     0.35200
loop_ 
_geom_bond_atom_site_label_1 
_geom_bond_atom_site_label_2 
_geom_bond_distance 
_geom_bond_site_symmetry_2 
_ccdc_geom_bond_type 
N1            C6   1.356       .  A
N1            C5   1.368       .  A
N1           H33   1.036       .  S
N2            C9   1.360       .  A
N2           C10   1.352       .  A
N3            C8   1.367       .  A
N3            C7   1.355       .  A
N3           H34   1.038       .  S
N4           C11   1.354       .  A
N4           C12   1.362       .  A
C5           C13   1.386       .  A
C5           C21   1.432   1_655  A
C6           C22   1.427   1_545  A
C6           C14   1.389       .  A
C7           C15   1.388       .  A
C7           C24   1.423   1_565  A
C8           C23   1.432   1_455  A
C8           C16   1.387       .  A
C9           C21   1.428       .  A
C9           C17   1.387       .  A
C10          C24   1.422       .  A
C10          C18   1.387       .  A
C11          C19   1.388       .  A
C11          C22   1.426       .  A
C12          C20   1.385       .  A
C12          C23   1.428       .  A
C13          C14   1.372       .  A
C13          H25   1.081       .  S
C14          H26   1.082       .  S
C15          C16   1.374       .  A
C15          H27   1.082       .  S
C16          H28   1.081       .  S
C17          C18   1.372       .  A
C17          H29   1.079       .  S
C18          H30   1.082       .  S
C19          C20   1.375       .  A
C19          H31   1.082       .  S
C20          H32   1.080       .  S
C21         C523   1.527       .  S
C22         C487   1.486       .  S
C23         C502   1.529       .  S
C24         C469   1.481       .  S
O35         Ni41   1.932       .  S
O35          C56   1.271       .  A
O36         Ni59   1.908       .  S
O36          C45   1.268       .  A
O37         Ni41   1.918       .  S
O37         Ni59   1.908   1_455  S
O37         Ni53   1.920       .  S
O37          H60   0.966       .  S
C38         C448   1.484   1_655  S
C38          O55   1.276   1_655  A
C38          O47   1.278       .  A
O39         Ni58   1.932       .  S
O39          C45   1.272       .  A
O40         Ni58   1.915       .  S
O40          C42   1.267       .  A
Ni41         O44   1.931       .  S
Ni41         O46   1.919       .  S
C42         C520   1.499   1_655  S
C42          O52   1.280   1_655  A
O43         Ni59   1.932       .  S
O43          C49   1.279   1_655  A
O44          C49   1.279       .  A
C45         C397   1.470       .  S
O46          C48   1.269       .  A
O47         Ni58   1.942       .  S
C48         C505   1.502       .  S
C48          O54   1.280   1_455  A
C49         C430   1.481       .  S
H50          O51   0.965       .  S
O51         Ni59   1.927       .  S
O51         Ni53   1.911   1_655  S
O51         Ni58   1.921       .  S
O52         Ni53   1.967       .  S
Ni53         O57   1.904       .  S
Ni53         O55   1.924       .  S
O54         Ni59   1.965       .  S
C56         C412   1.468       .  S
C56          O57   1.265       .  A
O61         Ni67   1.920       .  S
O61          C82   1.268   1_545  A
O62         Ni85   1.934       .  S
O62          C71   1.272       .  A
O63         Ni67   1.900       .  S
O63         Ni85   1.913       .  S
O63         Ni79   1.894   1_545  S
O63          H86   0.967       .  S
C64         C322   1.441       .  S
C64          O81   1.272       .  A
C64          O73   1.276       .  A
O65         Ni84   1.930       .  S
O65          C71   1.270   1_565  A
O66         Ni84   1.908       .  S
O66          C68   1.269       .  A
Ni67         O70   1.904       .  S
Ni67         O72   1.907       .  S
C68         C484   1.477       .  S
C68          O78   1.271       .  A
O69         Ni85   1.888       .  S
O69          C75   1.273       .  A
O70          C75   1.275       .  A
C71         C361   1.487       .  S
O72          C74   1.268       .  A
O73         Ni84   1.916       .  S
C74         C466   1.472       .  S
C74          O80   1.271       .  A
C75         C340   1.438       .  S
H76          O77   0.967       .  S
O77         Ni85   1.892   1_565  S
O77         Ni79   1.918       .  S
O77         Ni84   1.902       .  S
O78         Ni79   1.934       .  S
Ni79         O83   1.937       .  S
Ni79         O81   1.883       .  S
O80         Ni85   1.927       .  S
C82         C376   1.486       .  S
C82          O83   1.273       .  A
N87          C92   1.354       .  A
N87          C91   1.359       .  A
N87         H119   1.035       .  S
N88          C95   1.356       .  A
N88          C96   1.353       .  A
N89          C94   1.357       .  A
N89          C93   1.352       .  A
N89         H120   1.035       .  S
N90          C97   1.353       .  A
N90          C98   1.357       .  A
C91          C99   1.385       .  A
C91         C107   1.421       .  A
C92         C108   1.423       .  A
C92         C100   1.390       .  A
C93         C101   1.388       .  A
C93         C110   1.417       .  A
C94         C109   1.419       .  A
C94         C102   1.387       .  A
C95         C107   1.418   1_545  A
C95         C103   1.385       .  A
C96         C110   1.418   1_554  A
C96         C104   1.388       .  A
C97         C105   1.389       .  A
C97         C108   1.422   1_556  A
C98         C106   1.385       .  A
C98         C109   1.421   1_565  A
C99         C100   1.375       .  A
C99         H111   1.082       .  S
C100        H112   1.082       .  S
C101        C102   1.373       .  A
C101        H113   1.082       .  S
C102        H114   1.081       .  S
C103        C104   1.370       .  A
C103        H115   1.082       .  S
C104        H116   1.082       .  S
C105        C106   1.373       .  A
C105        H117   1.082       .  S
C106        H118   1.082       .  S
C107        C379   1.499       .  S
C108        C286   1.484       .  S
C109        C358   1.497       .  S
C110        C307   1.479       .  S
N121        C126   1.357       .  A
N121        C125   1.359       .  A
N121        H153   1.033       .  S
N122        C129   1.356       .  A
N122        C130   1.354       .  A
N123        C128   1.359       .  A
N123        C127   1.357       .  A
N123        H154   1.038       .  S
N124        C131   1.353       .  A
N124        C132   1.354       .  A
C125        C133   1.389       .  A
C125        C141   1.428   1_655  A
C126        C142   1.423   1_554  A
C126        C134   1.386       .  A
C127        C135   1.387       .  A
C127        C144   1.419   1_556  A
C128        C143   1.423   1_455  A
C128        C136   1.388       .  A
C129        C141   1.424       .  A
C129        C137   1.387       .  A
C130        C144   1.420       .  A
C130        C138   1.386       .  A
C131        C139   1.387       .  A
C131        C142   1.418       .  A
C132        C140   1.387       .  A
C132        C143   1.418       .  A
C133        C134   1.374       .  A
C133        H145   1.081       .  S
C134        H146   1.082       .  S
C135        C136   1.372       .  A
C135        H147   1.082       .  S
C136        H148   1.082       .  S
C137        C138   1.371       .  A
C137        H149   1.081       .  S
C138        H150   1.082       .  S
C139        C140   1.372       .  A
C139        H151   1.082       .  S
C140        H152   1.081       .  S
C141        C451   1.501       .  S
C142        C253   1.487       .  S
C143        C433   1.497       .  S
C144        C268   1.489       .  S
O155       Ni161   1.922       .  S
O155        C176   1.269   1_556  A
O156       Ni179   1.911       .  S
O156        C165   1.268       .  A
O157       Ni161   1.896       .  S
O157       Ni179   1.901       .  S
O157       Ni173   1.903   1_556  S
O157        H180   0.966       .  S
C158        C235   1.462       .  S
C158        O175   1.277       .  A
C158        O167   1.277       .  A
O159       Ni178   1.924       .  S
O159        C165   1.269   1_554  A
O160       Ni178   1.901       .  S
O160        C162   1.266       .  A
Ni161       O164   1.919       .  S
Ni161       O166   1.897       .  S
C162        C271   1.477       .  S
C162        O172   1.273       .  A
O163       Ni179   1.912       .  S
O163        C169   1.277       .  A
O164        C169   1.277       .  A
C165        C304   1.465       .  S
O166        C168   1.265       .  A
O167       Ni178   1.920       .  S
C168        C250   1.479       .  S
C168        O174   1.274       .  A
C169        C214   1.462       .  S
H170        O171   0.967       .  S
O171       Ni179   1.909   1_554  S
O171       Ni173   1.901       .  S
O171       Ni178   1.900       .  S
O172       Ni173   1.939       .  S
Ni173       O177   1.919       .  S
Ni173       O175   1.912       .  S
O174       Ni179   1.946       .  S
C176        C289   1.469       .  S
C176        O177   1.270       .  A
O181       Ni187   1.898       .  S
O181        C202   1.267       .  A
O182       Ni205   1.878       .  S
O182        C191   1.259       .  A
O183       Ni187   1.916       .  S
O183       Ni205   1.895       .  S
O183       Ni199   1.917       .  S
O183        H206   0.966       .  S
C184        C217   1.460       .  S
C184        O201   1.267       .  A
C184        O193   1.266       .  A
O185       Ni204   1.896       .  S
O185        C191   1.266       .  A
O186       Ni204   1.905       .  S
O186        C188   1.269       .  A
Ni187       O190   1.924       .  S
Ni187       O192   1.907       .  S
C188        C415   1.470       .  S
C188        O198   1.276       .  A
O189       Ni205   1.900       .  S
O189        C195   1.265       .  A
O190        C195   1.268       .  A
C191        C343   1.438       .  S
O192        C194   1.268       .  A
O193       Ni204   1.918       .  S
C194        C394   1.473       .  S
C194        O200   1.276       .  A
C195        C232   1.462       .  S
H196        O197   0.966       .  S
O197       Ni205   1.915       .  S
O197       Ni199   1.895       .  S
O197       Ni204   1.917       .  S
O198       Ni199   1.946       .  S
Ni199       O203   1.883       .  S
Ni199       O201   1.906       .  S
O200       Ni205   1.945       .  S
C202        C325   1.443       .  S
C202        O203   1.261       .  A
C207        N213   1.341       .  A
C207        C212   1.385       .  A
C207        C208   1.398       .  A
C208        C209   1.399       .  A
C208        H219   1.083       .  S
C209        C218   1.369       .  A
C209        C210   1.386       .  A
C210        N216   1.343       .  A
C210        C211   1.400       .  A
C211        C212   1.401       .  A
C211        H220   1.082       .  S
C212        C215   1.373       .  A
N213        C214   1.353       .  A
N213        H223   1.045       .  S
C214        C215   1.394       .  A
C215        H221   1.082       .  S
N216        C217   1.353       .  A
N216        H224   1.045       .  S
C217        C218   1.393       .  A
C218        H222   1.083       .  S
C225        N231   1.338       .  A
C225        C230   1.385       .  A
C225        C226   1.398       .  A
C226        C227   1.397       .  A
C226        H237   1.083       .  S
C227        C236   1.371       .  A
C227        C228   1.385       .  A
C228        N234   1.342       .  A
C228        C229   1.403       .  A
C229        C230   1.402       .  A
C229        H238   1.082       .  S
C230        C233   1.378       .  A
N231        C232   1.353       .  A
N231        H241   1.045       .  S
C232        C233   1.394       .  A
C233        H239   1.082       .  S
N234        C235   1.356       .  A
N234        H242   1.045       .  S
C235        C236   1.391       .  A
C236        H240   1.083       .  S
C243        N249   1.340       .  A
C243        C248   1.384       .  A
C243        C244   1.403       .  A
C244        C245   1.401       .  A
C244        H255   1.082       .  S
C245        C254   1.380       .  A
C245        C246   1.384       .  A
C246        N252   1.346       .  A
C246        C247   1.409       .  A
C247        C248   1.407       .  A
C247        H256   1.082       .  S
C248        C251   1.388       .  A
N249        C250   1.356       .  A
N249        H259   1.045       .  S
C250        C251   1.399       .  A
C251        H257   1.082       .  S
N252        C253   1.357       .  A
N252        H260   1.044       .  S
C253        C254   1.394       .  A
C254        H258   1.082       .  S
C261        N267   1.346   1_554  A
C261        C266   1.384       .  A
C261        C262   1.408   1_554  A
C262        C263   1.407   1_556  A
C262        H273   1.082       .  S
C263        C272   1.386       .  A
C263        C264   1.384       .  A
C264        N270   1.341       .  A
C264        C265   1.403       .  A
C265        C266   1.401       .  A
C265        H274   1.082       .  S
C266        C269   1.379       .  A
N267        C268   1.357   1_556  A
N267        H277   1.044       .  S
C268        C269   1.394       .  A
C269        H275   1.082       .  S
N270        C271   1.356       .  A
N270        H278   1.045       .  S
C271        C272   1.398       .  A
C272        H276   1.082   1_554  S
C279        N285   1.343       .  A
C279        C284   1.385       .  A
C279        C280   1.400       .  A
C280        C281   1.400       .  A
C280        H291   1.083       .  S
C281        C290   1.372       .  A
C281        C282   1.385       .  A
C282        N288   1.347       .  A
C282        C283   1.406       .  A
C283        C284   1.406       .  A
C283        H292   1.082       .  S
C284        C287   1.379       .  A
N285        C286   1.354       .  A
N285        H295   1.045       .  S
C286        C287   1.396       .  A
C287        H293   1.082       .  S
N288        C289   1.356       .  A
N288        H296   1.045       .  S
C289        C290   1.394       .  A
C290        H294   1.083       .  S
C297        N303   1.338       .  A
C297        C302   1.385       .  A
C297        C298   1.399       .  A
C298        C299   1.397       .  A
C298        H309   1.083   1_556  S
C299        C308   1.373       .  A
C299        C300   1.385       .  A
C300        N306   1.343       .  A
C300        C301   1.404       .  A
C301        C302   1.403       .  A
C301        H310   1.082       .  S
C302        C305   1.381       .  A
N303        C304   1.354       .  A
N303        H313   1.045   1_556  S
C304        C305   1.395       .  A
C305        H311   1.082       .  S
N306        C307   1.355       .  A
N306        H314   1.045       .  S
C307        C308   1.392       .  A
C308        H312   1.082   1_556  S
C315        N321   1.331       .  A
C315        C320   1.386       .  A
C315        C316   1.388       .  A
C316        C317   1.388       .  A
C316        H327   1.083       .  S
C317        C326   1.358       .  A
C317        C318   1.387       .  A
C318        N324   1.339       .  A
C318        C319   1.398       .  A
C319        C320   1.398       .  A
C319        H328   1.082       .  S
C320        C323   1.371       .  A
N321        C322   1.348       .  A
N321        H331   1.045       .  S
C322        C323   1.392       .  A
C323        H329   1.083       .  S
N324        C325   1.352       .  A
N324        H332   1.045       .  S
C325        C326   1.386       .  A
C326        H330   1.083       .  S
C333        N339   1.330       .  A
C333        C338   1.386       .  A
C333        C334   1.389       .  A
C334        C335   1.389       .  A
C334        H345   1.083       .  S
C335        C344   1.359       .  A
C335        C336   1.388       .  A
C336        N342   1.336       .  A
C336        C337   1.395       .  A
C337        C338   1.394       .  A
C337        H346   1.083       .  S
C338        C341   1.366       .  A
N339        C340   1.349       .  A
N339        H349   1.045       .  S
C340        C341   1.390       .  A
C341        H347   1.083       .  S
N342        C343   1.350       .  A
N342        H350   1.045       .  S
C343        C344   1.387       .  A
C344        H348   1.083       .  S
C351        N357   1.349       .  A
C351        C356   1.383       .  A
C351        C352   1.412       .  A
C352        C353   1.411       .  A
C352        H363   1.082       .  S
C353        C362   1.390       .  A
C353        C354   1.383       .  A
C354        N360   1.344       .  A
C354        C355   1.405       .  A
C355        C356   1.403       .  A
C355        H364   1.082       .  S
C356        C359   1.381       .  A
N357        C358   1.360       .  A
N357        H367   1.044       .  S
C358        C359   1.396       .  A
C359        H365   1.082       .  S
N360        C361   1.357       .  A
N360        H368   1.045       .  S
C361        C362   1.401       .  A
C362        H366   1.082       .  S
C369        N375   1.344       .  A
C369        C374   1.383       .  A
C369        C370   1.406   1_565  A
C370        C371   1.404   1_545  A
C370        H381   1.082       .  S
C371        C380   1.381   1_565  A
C371        C372   1.383       .  A
C372        N378   1.350       .  A
C372        C373   1.412       .  A
C373        C374   1.410       .  A
C373        H382   1.082       .  S
C374        C377   1.390       .  A
N375        C376   1.358       .  A
N375        H385   1.045   1_565  S
C376        C377   1.400       .  A
C377        H383   1.082       .  S
N378        C379   1.359       .  A
N378        H386   1.044       .  S
C379        C380   1.397   1_565  A
C380        H384   1.082       .  S
C387        N393   1.346       .  A
C387        C392   1.384       .  A
C387        C388   1.407       .  A
C388        C389   1.406       .  A
C388        H399   1.082       .  S
C389        C398   1.382       .  A
C389        C390   1.385       .  A
C390        N396   1.341       .  A
C390        C391   1.401       .  A
C391        C392   1.400       .  A
C391        H400   1.082       .  S
C392        C395   1.375       .  A
N393        C394   1.358       .  A
N393        H403   1.045       .  S
C394        C395   1.394       .  A
C395        H401   1.083       .  S
N396        C397   1.354       .  A
N396        H404   1.045       .  S
C397        C398   1.397       .  A
C398        H402   1.082       .  S
C405        N411   1.344       .  A
C405        C410   1.385       .  A
C405        C406   1.404       .  A
C406        C407   1.403       .  A
C406        H417   1.082       .  S
C407        C416   1.378       .  A
C407        C408   1.385       .  A
C408        N414   1.342       .  A
C408        C409   1.401       .  A
C409        C410   1.400       .  A
C409        H418   1.082       .  S
C410        C413   1.375       .  A
N411        C412   1.356       .  A
N411        H421   1.045       .  S
C412        C413   1.393       .  A
C413        H419   1.082       .  S
N414        C415   1.355       .  A
N414        H422   1.045       .  S
C415        C416   1.396       .  A
C416        H420   1.082       .  S
C423        N429   1.350       .  A
C423        C428   1.384   1_655  A
C423        C424   1.409       .  A
C424        C425   1.409       .  A
C424        H435   1.082       .  S
C425        C434   1.384       .  A
C425        C426   1.384   1_655  A
C426        N432   1.344       .  A
C426        C427   1.403       .  A
C427        C428   1.403       .  A
C427        H436   1.082       .  S
C428        C431   1.377       .  A
N429        C430   1.359   1_655  A
N429        H439   1.045       .  S
C430        C431   1.396       .  A
C431        H437   1.082       .  S
N432        C433   1.356   1_455  A
N432        H440   1.045       .  S
C433        C434   1.401       .  A
C434        H438   1.082       .  S
C441        N447   1.346       .  A
C441        C446   1.384   1_655  A
C441        C442   1.406       .  A
C442        C443   1.405       .  A
C442        H453   1.082       .  S
C443        C452   1.381       .  A
C443        C444   1.383   1_655  A
C444        N450   1.348       .  A
C444        C445   1.409       .  A
C445        C446   1.409       .  A
C445        H454   1.082       .  S
C446        C449   1.386       .  A
N447        C448   1.357   1_655  A
N447        H457   1.045       .  S
C448        C449   1.399       .  A
C449        H455   1.082       .  S
N450        C451   1.360       .  A
N450        H458   1.045       .  S
C451        C452   1.398   1_455  A
C452        H456   1.082       .  S
C459        N465   1.346       .  A
C459        C464   1.384       .  A
C459        C460   1.407       .  A
C460        C461   1.406       .  A
C460        H471   1.082       .  S
C461        C470   1.382       .  A
C461        C462   1.385       .  A
C462        N468   1.341       .  A
C462        C463   1.400       .  A
C463        C464   1.399       .  A
C463        H472   1.082       .  S
C464        C467   1.374       .  A
N465        C466   1.358       .  A
N465        H475   1.045       .  S
C466        C467   1.394       .  A
C467        H473   1.082       .  S
N468        C469   1.352       .  A
N468        H476   1.045       .  S
C469        C470   1.396       .  A
C470        H474   1.082       .  S
C477        N483   1.349   1_545  A
C477        C482   1.384       .  A
C477        C478   1.410   1_545  A
C478        C479   1.409   1_565  A
C478        H489   1.082       .  S
C479        C488   1.385   1_545  A
C479        C480   1.385       .  A
C480        N486   1.340       .  A
C480        C481   1.399       .  A
C481        C482   1.398       .  A
C481        H490   1.082       .  S
C482        C485   1.373       .  A
N483        C484   1.359       .  A
N483        H493   1.045       .  S
C484        C485   1.393   1_565  A
C485        H491   1.082       .  S
N486        C487   1.352   1_545  A
N486        H494   1.045       .  S
C487        C488   1.399       .  A
C488        H492   1.082       .  S
C495        N501   1.357       .  A
C495        C500   1.380   1_655  A
C495        C496   1.417       .  A
C496        C497   1.417       .  A
C496        H507   1.082       .  S
C497        C506   1.395       .  A
C497        C498   1.382   1_655  A
C498        N504   1.353       .  A
C498        C499   1.413       .  A
C499        C500   1.412       .  A
C499        H508   1.082       .  S
C500        C503   1.388       .  A
N501        C502   1.366       .  A
N501        H511   1.044       .  S
C502        C503   1.405   1_655  A
C503        H509   1.082       .  S
N504        C505   1.361       .  A
N504        H512   1.044       .  S
C505        C506   1.405   1_455  A
C506        H510   1.082       .  S
C513        N519   1.354       .  A
C513        C518   1.382   1_455  A
C513        C514   1.414       .  A
C514        C515   1.414       .  A
C514        H525   1.082       .  S
C515        C524   1.390       .  A
C515        C516   1.380   1_455  A
C516        N522   1.353       .  A
C516        C517   1.414       .  A
C517        C518   1.414       .  A
C517        H526   1.082       .  S
C518        C521   1.390       .  A
N519        C520   1.361       .  A
N519        H529   1.044       .  S
C520        C521   1.403   1_455  A
C521        H527   1.082       .  S
N522        C523   1.364   1_655  A
N522        H530   1.044       .  S
C523        C524   1.407       .  A
C524        H528   1.082       .  S
