geometry optimzed in LAMMPS
_audit_creation_date              2020-12-01 
_audit_creation_method            'lammps2cif' 
_symmetry_space_group_name_H-M    'P1' 
_symmetry_Int_Tables_number       1 
_symmetry_cell_setting            triclinic 
loop_ 
_symmetry_equiv_pos_as_xyz 
  x,y,z 
_cell_length_a                    30.07229151 
_cell_length_b                    30.060421816417 
_cell_length_c                    88.36550848498673 
_cell_angle_alpha                 90.02639055256043 
_cell_angle_beta                  90.04438340121997 
_cell_angle_gamma                 120.14177643388597 
loop_ 
_atom_site_label 
_atom_site_type_symbol 
_atom_site_fract_x 
_atom_site_fract_y 
_atom_site_fract_z 
_atom_site_charge 
O1          O  0.97758715  0.67936157  0.26125970    -0.71300
O2          O  0.98098331  0.80999489  0.25297501    -0.72300
O3          O  0.96853881  0.72828835  0.23449712    -0.60900
O4          O  0.99458788  0.76560747  0.27962255    -0.69300
O5          O  0.07795681  0.80091892  0.27518837    -0.68900
O6          O  0.05276851  0.76799858  0.23101943    -0.60100
O7          O  0.06553105  0.85142637  0.24956808    -0.72700
O8          O  0.06094431  0.71472842  0.25666406    -0.71400
Cu9        Cu  0.97760933  0.74431980  0.25727598     1.04600
Cu10       Cu  0.06729238  0.78499385  0.25302484     1.04300
C11         C  0.01750872  0.67516803  0.25999022     0.94900
C12         C  0.02266952  0.85099082  0.24986117     0.94000
C13         C  0.00730879  0.74391259  0.22559319     0.86100
C14         C  0.04125992  0.79040014  0.28438022     0.92400
O15         O  0.15498412  0.89617227  0.39957353    -0.71300
O16         O  0.20126278  0.92659538  0.44215152    -0.72300
O17         O  0.11545528  0.91774466  0.42607347    -0.60900
O18         O  0.24443001  0.91048228  0.41586221    -0.69300
O19         O  0.28341736  0.99346173  0.41028444    -0.68900
O20         O  0.15988940  0.00131160  0.42114064    -0.60100
O21         O  0.24433772  0.01051153  0.43780331    -0.72700
O22         O  0.19454927  0.97875060  0.39361043    -0.71400
Cu23       Cu  0.17764323  0.90985873  0.42101265     1.04600
Cu24       Cu  0.22210065  0.99889079  0.41545688     1.04300
C25         C  0.16538735  0.93134275  0.38985703     0.94900
C26         C  0.22944593  0.97236670  0.44692799     0.94000
C27         C  0.11860143  0.96191291  0.42551413     0.86100
C28         C  0.28496046  0.95213752  0.41182923     0.92400
O29         O  0.98487327  0.30306935  0.26446865    -0.71300
O30         O  0.98312986  0.17331775  0.25593729    -0.72300
O31         O  0.00588868  0.26052347  0.23849360    -0.60900
O32         O  0.95738465  0.21142950  0.28179356    -0.69300
O33         O  0.87709855  0.17834798  0.27387402    -0.68900
O34         O  0.92398456  0.22447121  0.23167140    -0.60100
O35         O  0.90131437  0.13492328  0.24876169    -0.72700
O36         O  0.90444954  0.27055198  0.25675870    -0.71400
Cu37       Cu  0.98550117  0.23841286  0.26051114     1.04600
Cu38       Cu  0.89878162  0.20084871  0.25257215     1.04300
C39         C  0.94668732  0.30896255  0.26150274     0.94900
C40         C  0.94309719  0.13407212  0.25086460     0.94000
C41         C  0.97155804  0.24928631  0.22825607     0.86100
C42         C  0.90887038  0.18571717  0.28447936     0.92400
O43         O  0.77693802  0.08278919  0.39869196    -0.71300
O44         O  0.73791522  0.05246551  0.44203747    -0.72300
O45         O  0.82565406  0.07099261  0.42500385    -0.60900
O46         O  0.68692443  0.06000623  0.41601844    -0.69300
O47         O  0.65530447  0.97743244  0.41102622    -0.68900
O48         O  0.78852176  0.98716128  0.42060159    -0.60100
O49         O  0.70233424  0.96876812  0.43794877    -0.72700
O50         O  0.74474233  0.00033842  0.39341951    -0.71400
Cu51       Cu  0.75806107  0.06951379  0.42051169     1.04600
Cu52       Cu  0.72155982  0.98063390  0.41551039     1.04300
C53         C  0.76810819  0.04751963  0.38911966     0.94900
C54         C  0.71425658  0.00650094  0.44701776     0.94000
C55         C  0.82755484  0.02931513  0.42469811     0.86100
C56         C  0.64865162  0.01585444  0.41248331     0.92400
O57         O  0.25840677  0.97007516  0.59687297    -0.71300
O58         O  0.13122805  0.96887292  0.58531485    -0.72300
O59         O  0.20389599  0.95360226  0.56924764    -0.60900
O60         O  0.18777344  0.99065982  0.61281144    -0.69300
O61         O  0.23405812  0.07281694  0.60636830    -0.68900
O62         O  0.24921376  0.03714547  0.56444120    -0.60100
O63         O  0.17413467  0.05201790  0.57974973    -0.72700
O64         O  0.30673050  0.05247017  0.59120668    -0.71400
Cu65       Cu  0.19385010  0.96799261  0.59131509     1.04600
Cu66       Cu  0.24269816  0.05653732  0.58529221     1.04300
C67         C  0.30272220  0.00978992  0.59552343     0.94900
C68         C  0.13161550  0.00908613  0.58066192     0.94000
C69         C  0.22971016  0.99077885  0.56000746     0.86100
C70         C  0.20785686  0.03853435  0.61616600     0.92400
O71         O  0.23830785  0.29190612  0.74296798    -0.71300
O72         O  0.11962989  0.15123795  0.74823301    -0.72300
O73         O  0.17796100  0.23476689  0.76831233    -0.60900
O74         O  0.18113489  0.20548105  0.72319826    -0.69300
O75         O  0.23446669  0.17709562  0.72862316    -0.68900
O76         O  0.23120699  0.20531843  0.77220768    -0.60100
O77         O  0.17076543  0.11974768  0.75336633    -0.72700
O78         O  0.29286470  0.26460049  0.74769930    -0.71400
Cu79       Cu  0.17750997  0.22199541  0.74548741     1.04600
Cu80       Cu  0.23425156  0.19080441  0.75059541     1.04300
C81         C  0.28433645  0.30142497  0.74470797     0.94900
C82         C  0.12564491  0.11341119  0.75158484     0.94000
C83         C  0.20453221  0.22396213  0.77739563     0.86100
C84         C  0.20794366  0.18533611  0.71896450     0.92400
O85         O  0.64290267  0.98008915  0.59666639    -0.71300
O86         O  0.77057251  0.97875182  0.58745827    -0.72300
O87         O  0.70361721  0.99802042  0.57013005    -0.60900
O88         O  0.70845310  0.95551907  0.61392674    -0.69300
O89         O  0.66019405  0.87415243  0.60689906    -0.68900
O90         O  0.65822454  0.91530405  0.56417927    -0.60100
O91         O  0.72717010  0.89607160  0.58126220    -0.72700
O92         O  0.59439320  0.89878364  0.58964408    -0.71400
Cu93       Cu  0.70783498  0.98080511  0.59233508     1.04600
Cu94       Cu  0.65834302  0.89309255  0.58532794     1.04300
C95         C  0.59859852  0.94118578  0.59432346     0.94900
C96         C  0.76991346  0.93861804  0.58260223     0.94000
C97         C  0.68035345  0.96237735  0.56022807     0.86100
C98         C  0.68446160  0.90737954  0.61720494     0.92400
O99         O  0.75956592  0.77882463  0.75361786    -0.71300
O100        O  0.62078476  0.66088228  0.74519906    -0.72300
O101        O  0.69522658  0.74369599  0.72719722    -0.60900
O102        O  0.68372746  0.69908728  0.77178141    -0.69300
O103        O  0.65066271  0.74860372  0.77690641    -0.68900
O104        O  0.65902919  0.78926396  0.73367805    -0.60100
O105        O  0.58406061  0.70624511  0.75173663    -0.72700
O106        O  0.72742460  0.82892326  0.75913832    -0.71400
Cu107      Cu  0.69101402  0.71896831  0.74921038     1.04600
Cu108      Cu  0.65415254  0.76997131  0.75550738     1.04300
C109        C  0.76613603  0.82214924  0.75791093     0.94900
C110        C  0.58054806  0.66390775  0.74738140     0.94000
C111        C  0.67789832  0.77352341  0.72348583     0.86100
C112        C  0.66536564  0.71777911  0.78138400     0.92400
O113        O  0.63429217  0.66044913  0.93164936    -0.71300
O114        O  0.76304922  0.78764640  0.92178964    -0.72300
O115        O  0.67549483  0.72112556  0.90488055    -0.60900
O116        O  0.72659158  0.72642494  0.94840239    -0.69300
O117        O  0.76067375  0.68014467  0.94061124    -0.68900
O118        O  0.70994217  0.67361195  0.89845224    -0.60100
O119        O  0.80091759  0.74453617  0.91418578    -0.72700
O120        O  0.66683111  0.61201852  0.92459195    -0.71400
Cu121      Cu  0.69859147  0.72529822  0.92700393     1.04600
Cu122      Cu  0.73587241  0.67587096  0.91931571     1.04300
C123        C  0.62867261  0.61610936  0.92934364     0.94900
C124        C  0.80136453  0.78719509  0.91590170     0.94000
C125        C  0.68590492  0.69685126  0.89481937     0.86100
C126        C  0.75263955  0.70412010  0.95120233     0.92400
O127        O  0.87863037  0.68448699  0.06457979    -0.71300
O128        O  0.92398923  0.69281812  0.10763975    -0.72300
O129        O  0.89591237  0.75280869  0.08925803    -0.60900
O130        O  0.91158178  0.62657847  0.08283284    -0.69300
O131        O  0.99214779  0.67957668  0.07615579    -0.68900
O132        O  0.97635270  0.80096105  0.08127542    -0.60100
O133        O  0.00512518  0.74589722  0.10114749    -0.72700
O134        O  0.95865345  0.73426237  0.05681509    -0.71400
Cu135      Cu  0.89963900  0.68720397  0.08628597     1.04600
Cu136      Cu  0.98582590  0.74161692  0.07859597     1.04300
C137        C  0.91025959  0.70863621  0.05390477     0.94900
C138        C  0.97098864  0.72144184  0.11134440     0.94000
C139        C  0.93462576  0.79691713  0.08602026     0.86100
C140        C  0.95573665  0.63401980  0.07870587     0.92400
O141        O  0.13364662  0.25235585  0.93979280    -0.71300
O142        O  0.17433087  0.26564373  0.89671500    -0.72300
O143        O  0.08837274  0.19172347  0.91348057    -0.60900
O144        O  0.22326323  0.32445281  0.92316781    -0.69300
O145        O  0.25768772  0.27579789  0.92763177    -0.68900
O146        O  0.12893709  0.14834356  0.91775528    -0.60100
O147        O  0.21212009  0.21942205  0.90040015    -0.72700
O148        O  0.16929869  0.20526494  0.94492493    -0.71400
Cu149      Cu  0.15372387  0.26032180  0.91818655     1.04600
Cu150      Cu  0.19356946  0.21092930  0.92288978     1.04300
C151        C  0.14294757  0.22595538  0.94918555     0.94900
C152        C  0.19782972  0.24364996  0.89149406     0.94000
C153        C  0.08871438  0.14918716  0.91386031     0.86100
C154        C  0.26232219  0.32021366  0.92683275     0.92400
O155        O  0.04989682  0.27737718  0.10952367    -0.71300
O156        O  0.07107503  0.26082723  0.06600273    -0.72300
O157        O  0.06529199  0.33842617  0.08337806    -0.60900
O158        O  0.05115686  0.19825208  0.09204780    -0.69300
O159        O  0.96736227  0.16323447  0.08833225    -0.68900
O160        O  0.98142787  0.29764615  0.07886660    -0.60100
O161        O  0.98759816  0.22116953  0.06137668    -0.72700
O162        O  0.96580271  0.24073072  0.10615013    -0.71400
Cu163      Cu  0.06232257  0.27012953  0.08785502     1.04600
Cu164      Cu  0.97270340  0.22954517  0.08354067     1.04300
C165        C  0.00522354  0.26189075  0.11491501     0.94900
C166        C  0.03378142  0.23782681  0.05675141     0.94000
C167        C  0.02441641  0.33928352  0.07973064     0.86100
C168        C  0.00595428  0.15844690  0.09155417     0.92400
C169        C  0.01852264  0.19413827  0.01536175     0.14300
C170        C  0.07016962  0.21609477  0.01076421     0.01200
C171        C  0.10916855  0.24499851  0.02125265     0.16200
C172        C  0.09720554  0.25215983  0.03600186     0.25600
C173        C  0.04547902  0.23042758  0.04077623    -0.40700
C174        C  0.00624580  0.20105879  0.03022120     0.32700
C175        C  0.08419386  0.21279113  0.99480374     0.01300
F176        F  0.15931909  0.26801277  0.01704077    -0.13000
F177        F  0.95599283  0.17883835  0.03422646    -0.13500
C178        C  0.06963517  0.23465926  0.98320575     0.16200
C179        C  0.08803475  0.23803361  0.96847692     0.25600
C180        C  0.12192705  0.21967673  0.96489182    -0.40600
C181        C  0.13482142  0.19581644  0.97645343     0.32600
C182        C  0.11625800  0.19258738  0.99125368     0.14300
F183        F  0.03926256  0.25503113  0.98627754    -0.13000
F184        F  0.16615270  0.17645792  0.97357165    -0.13500
F185        F  0.07283833  0.26010218  0.95779630    -0.15800
F186        F  0.13008909  0.17021609  0.00220595    -0.14400
F187        F  0.97993579  0.16576273  0.00546139    -0.14400
F188        F  0.13688138  0.28121039  0.04550926    -0.15800
C189        C  0.02834844  0.56203146  0.07234213     0.14300
C190        C  0.99134741  0.51145963  0.07601792     0.01200
C191        C  0.94143234  0.50033250  0.07992246     0.16200
C192        C  0.92913521  0.53960931  0.08054185     0.25600
C193        C  0.96659011  0.59085204  0.07716496    -0.40700
C194        C  0.01625683  0.60121435  0.07282282     0.32700
C195        C  0.00494489  0.47037491  0.07579823     0.01300
F196        F  0.90489430  0.45149627  0.08350594    -0.13000
F197        F  0.05382908  0.64948245  0.06911884    -0.13500
C198        C  0.04193388  0.47173011  0.08587187     0.16200
C199        C  0.05168345  0.43072398  0.08642863     0.25600
C200        C  0.02442957  0.38781470  0.07693229    -0.40600
C201        C  0.98991889  0.38824644  0.06621032     0.32600
C202        C  0.98023568  0.42906743  0.06567456     0.14300
F203        F  0.06652896  0.51146957  0.09572689    -0.13000
F204        F  0.96433696  0.34820504  0.05649885    -0.13500
F205        F  0.08479665  0.43127931  0.09697990    -0.15800
F206        F  0.94598343  0.42787604  0.05542589    -0.14400
F207        F  0.07639030  0.57347840  0.06814996    -0.14400
F208        F  0.88083503  0.52741118  0.08465493    -0.15800
C209        C  0.96364209  0.93077327  0.07759125     0.14300
C210        C  0.95771271  0.94747796  0.09188287     0.01200
C211        C  0.93711166  0.91188116  0.10384461     0.16200
C212        C  0.92507194  0.86078306  0.10169287     0.25600
C213        C  0.93350215  0.84496376  0.08756521    -0.40700
C214        C  0.95183932  0.88004419  0.07547052     0.32700
C215        C  0.97229640  0.00192806  0.09403975     0.01300
F216        F  0.93110600  0.92728748  0.11775838    -0.13000
F217        F  0.96018357  0.86548193  0.06169613    -0.13500
C218        C  0.93446124  0.01439908  0.09750733     0.16200
C219        C  0.94641610  0.06563306  0.09761778     0.25600
C220        C  0.99661920  0.10566028  0.09411925    -0.40600
C221        C  0.03525389  0.09323175  0.09150538     0.32600
C222        C  0.02308571  0.04168546  0.09142233     0.14300
F223        F  0.88509359  0.97669245  0.09991207    -0.13000
F224        F  0.08400049  0.13049484  0.08816487    -0.13500
F225        F  0.90811401  0.07576817  0.10066824    -0.15800
F226        F  0.06052988  0.03038116  0.08831202    -0.14400
F227        F  0.98161859  0.96390507  0.06572421    -0.14400
F228        F  0.90897325  0.82797143  0.11363345    -0.15800
C229        C  0.37849514  0.45650095  0.92600561     0.14300
C230        C  0.41738256  0.44821013  0.93182595     0.01200
C231        C  0.40390689  0.39928038  0.93727474     0.16200
C232        C  0.35317610  0.35873809  0.93633477     0.25600
C233        C  0.31428450  0.36585090  0.92973851    -0.40700
C234        C  0.32740156  0.41570972  0.92494635     0.32700
C235        C  0.47223913  0.48992712  0.93194496     0.01300
F236        F  0.44019547  0.39061492  0.94348415    -0.13000
F237        F  0.29143565  0.42469030  0.91867378    -0.13500
C238        C  0.48773159  0.53520243  0.94022184     0.16200
C239        C  0.53913641  0.57488054  0.94005813     0.25600
C240        C  0.57641390  0.57039789  0.93148741    -0.40600
C241        C  0.56109020  0.52409550  0.92365392     0.32600
C242        C  0.50953981  0.48433164  0.92388390     0.14300
F243        F  0.45298010  0.54098892  0.94852252    -0.13000
F244        F  0.59531531  0.51813269  0.91514971    -0.13500
F245        F  0.55219320  0.61806126  0.94820793    -0.15800
F246        F  0.49560154  0.44096450  0.91573711    -0.14400
F247        F  0.39040024  0.50366030  0.92076819    -0.14400
F248        F  0.34253335  0.31215425  0.94176287    -0.15800
C249        C  0.87355731  0.92651281  0.90426761     0.14300
C250        C  0.92473485  0.94016448  0.90706804     0.01200
C251        C  0.93612401  0.90108056  0.91052206     0.16200
C252        C  0.89631644  0.84988077  0.91236606     0.25600
C253        C  0.84479083  0.83746231  0.91099850    -0.40700
C254        C  0.83408722  0.87595074  0.90626323     0.32700
C255        C  0.96499118  0.99547576  0.90753466     0.01300
F256        F  0.98540360  0.91289889  0.91303804    -0.13000
F257        F  0.78491087  0.86495481  0.90396873    -0.13500
C258        C  0.95877197  0.02977955  0.91702102     0.16200
C259        C  0.99739807  0.08148148  0.91811378     0.25600
C260        C  0.04325489  0.09945621  0.91000622    -0.40600
C261        C  0.04895517  0.06569590  0.90019950     0.32600
C262        C  0.00996653  0.01428859  0.89885534     0.14300
F263        F  0.91644891  0.01252696  0.92590076    -0.13000
F264        F  0.09314825  0.08231095  0.89224261    -0.13500
F265        F  0.99171741  0.11288122  0.92799004    -0.15800
F266        F  0.01646311  0.98276047  0.88923967    -0.14400
F267        F  0.86156722  0.96268778  0.90005141    -0.14400
F268        F  0.90798856  0.81341526  0.91645768    -0.15800
C269        C  0.81064915  0.74828461  0.99087382     0.14300
C270        C  0.82192005  0.70969413  0.99495405     0.01200
C271        C  0.80904785  0.66906212  0.98479575     0.16200
C272        C  0.78600679  0.66711233  0.97081851     0.25600
C273        C  0.77456385  0.70562830  0.96659292    -0.40700
C274        C  0.78692985  0.74614849  0.97688871     0.32700
C275        C  0.84525573  0.71014354  0.00996660     0.01300
F276        F  0.81936445  0.63123374  0.98837572    -0.13000
F277        F  0.77732840  0.78442426  0.97328861    -0.13500
C278        C  0.81654805  0.67188252  0.02069403     0.16200
C279        C  0.83809952  0.67070826  0.03467312     0.25600
C280        C  0.88941884  0.70778686  0.03836291    -0.40600
C281        C  0.91847970  0.74574944  0.02745003     0.32600
C282        C  0.89651859  0.74699968  0.01345498     0.14300
F283        F  0.76699696  0.63576352  0.01768935    -0.13000
F284        F  0.96778814  0.78250319  0.03041975    -0.13500
F285        F  0.80831697  0.63288830  0.04459911    -0.15800
F286        F  0.92554250  0.78395746  0.00321973    -0.14400
F287        F  0.82206873  0.78775290  0.00052590    -0.14400
F288        F  0.77441351  0.62686374  0.96146374    -0.15800
C289        C  0.62826044  0.70973022  0.82285372     0.14300
C290        C  0.66179348  0.69653773  0.82988823     0.01200
C291        C  0.69368857  0.68569056  0.82082597     0.16200
C292        C  0.69363403  0.69027965  0.80496633     0.25600
C293        C  0.66147499  0.70568471  0.79790642    -0.40700
C294        C  0.62777048  0.71393541  0.80709242     0.32700
C295        C  0.66470580  0.69627944  0.84669398     0.01300
F296        F  0.72637027  0.67265051  0.82739350    -0.13000
F297        F  0.59440389  0.72670535  0.80085197    -0.13500
C298        C  0.64411974  0.64976041  0.85470575     0.16200
C299        C  0.64836394  0.64990984  0.87052832     0.25600
C300        C  0.67271664  0.69657814  0.87864076    -0.40600
C301        C  0.69189518  0.74306070  0.87065093     0.32600
C302        C  0.68795945  0.74289818  0.85480984     0.14300
F303        F  0.62024850  0.60422861  0.84717619    -0.13000
F304        F  0.71750324  0.78869025  0.87808085    -0.13500
F305        F  0.62932269  0.60441733  0.87795748    -0.15800
F306        F  0.70869462  0.78837848  0.84730362    -0.14400
F307        F  0.59621482  0.71915689  0.83132088    -0.14400
F308        F  0.72673306  0.68204015  0.79663777    -0.15800
C309        C  0.72771415  0.89231773  0.65662649     0.14300
C310        C  0.68366510  0.84797356  0.66198060     0.01200
C311        C  0.63982948  0.82432148  0.65267281     0.16200
C312        C  0.64012090  0.84412460  0.63827853     0.25600
C313        C  0.68405645  0.88870477  0.63288775    -0.40700
C314        C  0.72780187  0.91274163  0.64227472     0.32700
C315        C  0.68220707  0.82780157  0.67754215     0.01300
F316        F  0.59665048  0.78160024  0.65750363    -0.13000
F317        F  0.77116990  0.95508000  0.63738208    -0.13500
C318        C  0.64929039  0.82952583  0.68847048     0.16200
C319        C  0.64766946  0.81140921  0.70318268     0.25600
C320        C  0.67886670  0.79057821  0.70744668    -0.40600
C321        C  0.71110640  0.78780157  0.69633349     0.32600
C322        C  0.71291952  0.80649164  0.68157087     0.14300
F323        F  0.61902240  0.84964983  0.68493817    -0.13000
F324        F  0.74158686  0.76789155  0.69977672    -0.13500
F325        F  0.61491481  0.81406005  0.71322290    -0.15800
F326        F  0.74426553  0.80324297  0.67113367    -0.14400
F327        F  0.77045339  0.91629068  0.66541249    -0.14400
F328        F  0.59689599  0.81997941  0.62967465    -0.15800
C329        C  0.20870242  0.28383594  0.85039345     0.14300
C330        C  0.20268692  0.24000657  0.84287293     0.01200
C331        C  0.19848959  0.19864001  0.85148664     0.16200
C332        C  0.20001739  0.20095873  0.86732897     0.25600
C333        C  0.20504413  0.24442659  0.87488078    -0.40700
C334        C  0.20967697  0.28598257  0.86622206     0.32700
C335        C  0.20347271  0.23828539  0.82607165     0.01300
F336        F  0.19138180  0.15525043  0.84452918    -0.13000
F337        F  0.21502792  0.32881945  0.87310027    -0.13500
C338        C  0.24059360  0.23069800  0.81885965     0.16200
C339        C  0.24146961  0.22747090  0.80314104     0.25600
C340        C  0.20499503  0.23173519  0.79407926    -0.40600
C341        C  0.16854187  0.24088637  0.80130303     0.32600
C342        C  0.16779826  0.24408615  0.81717315     0.14300
F343        F  0.27661305  0.22676711  0.82709873    -0.13000
F344        F  0.13279562  0.24536331  0.79310369    -0.13500
F345        F  0.27848323  0.22008978  0.79686837    -0.15800
F346        F  0.13128974  0.25132893  0.82386524    -0.14400
F347        F  0.21424216  0.32488374  0.84239866    -0.14400
F348        F  0.19374279  0.15953173  0.87526277    -0.15800
C349        C  0.01778583  0.99397498  0.76961492     0.14300
C350        C  0.97849299  0.98099061  0.75885506     0.01200
C351        C  0.99091804  0.00663199  0.74487222     0.16200
C352        C  0.04033569  0.04738543  0.74216259     0.25600
C353        C  0.07878328  0.06283036  0.75325070    -0.40700
C354        C  0.06785536  0.03469268  0.76678595     0.32700
C355        C  0.92409865  0.94173752  0.76191084     0.01300
F356        F  0.95457719  0.99297469  0.73393146    -0.13000
F357        F  0.10442631  0.04909489  0.77767811    -0.13500
C358        C  0.88523363  0.95449125  0.76019731     0.16200
C359        C  0.83336871  0.91600442  0.75973942     0.25600
C360        C  0.81945252  0.86402351  0.76110184    -0.40600
C361        C  0.85821244  0.85191899  0.76436681     0.32600
C362        C  0.91003584  0.89040701  0.76468541     0.14300
F363        F  0.89781575  0.00426878  0.75823519    -0.13000
F364        F  0.84618304  0.80248420  0.76677580    -0.13500
F365        F  0.79727787  0.92949019  0.75700327    -0.15800
F366        F  0.94654385  0.87700129  0.76671235    -0.14400
F367        F  0.00708013  0.96933587  0.78314119    -0.14400
F368        F  0.05024125  0.07329788  0.72886103    -0.15800
C369        C  0.41537337  0.42263634  0.74925515     0.14300
C370        C  0.40543478  0.46063302  0.74377728     0.01200
C371        C  0.35668083  0.44618323  0.73800137     0.16200
C372        C  0.31787038  0.39443581  0.73792650     0.25600
C373        C  0.32711659  0.35585132  0.74367360    -0.40700
C374        C  0.37666477  0.37070311  0.74920935     0.32700
C375        C  0.44629512  0.51536193  0.74395043     0.01300
F376        F  0.34658014  0.48238979  0.73251652    -0.13000
F377        F  0.38745447  0.33532176  0.75496896    -0.13500
C378        C  0.47961168  0.53628856  0.73156577     0.16200
C379        C  0.52156998  0.58642126  0.73228697     0.25600
C380        C  0.53037191  0.61664056  0.74532636    -0.40600
C381        C  0.49534661  0.59665509  0.75739847     0.32600
C382        C  0.45366762  0.54614882  0.75674025     0.14300
F383        F  0.47259327  0.50737179  0.71902108    -0.13000
F384        F  0.50380090  0.62450048  0.77026840    -0.13500
F385        F  0.55476653  0.60496632  0.72045134    -0.15800
F386        F  0.42179087  0.52645442  0.76882929    -0.14400
F387        F  0.46259263  0.43603027  0.75480117    -0.14400
F388        F  0.27117028  0.38238440  0.73223842    -0.15800
C389        C  0.90723172  0.99999681  0.56919562     0.14300
C390        C  0.92297693  0.96689190  0.57521315     0.01200
C391        C  0.88591029  0.92066966  0.58216224     0.16200
C392        C  0.83467518  0.90906071  0.58363079     0.25600
C393        C  0.81999344  0.94392250  0.57845452    -0.40700
C394        C  0.85645791  0.98883946  0.57089247     0.32700
C395        C  0.97818028  0.98138800  0.57475454     0.01300
F396        F  0.89990216  0.88810757  0.58829742    -0.13000
F397        F  0.84304201  0.02267130  0.56538744    -0.13500
C398        C  0.01674773  0.02879123  0.58075307     0.16200
C399        C  0.06803623  0.04011461  0.58160292     0.25600
C400        C  0.08136876  0.00389668  0.57671042    -0.40600
C401        C  0.04333093  0.95787665  0.56995960     0.32600
C402        C  0.99245789  0.94694539  0.56889755     0.14300
F403        F  0.00429970  0.06284739  0.58663625    -0.13000
F404        F  0.05522356  0.92260771  0.56473841    -0.13500
F405        F  0.10372705  0.08463902  0.58824118    -0.15800
F406        F  0.95684206  0.90209317  0.56238693    -0.14400
F407        F  0.94125811  0.04363677  0.56183876    -0.14400
F408        F  0.80044224  0.86566299  0.59103125    -0.15800
C409        C  0.51722023  0.99816858  0.60707652     0.14300
C410        C  0.47299191  0.97108649  0.59815042     0.01200
C411        C  0.46836723  0.93112772  0.58873822     0.16200
C412        C  0.50799914  0.91940637  0.58796788     0.25600
C413        C  0.55307878  0.94755196  0.59659954    -0.40700
C414        C  0.55674629  0.98653017  0.60635280     0.32700
C415        C  0.43114879  0.98367744  0.59885891     0.01300
F416        F  0.42608905  0.90459220  0.57988736    -0.13000
F417        F  0.59890373  0.01378973  0.61519886    -0.13500
C418        C  0.43952763  0.03237071  0.59451038     0.16200
C419        C  0.39857534  0.04234020  0.59414275     0.25600
C420        C  0.34850330  0.00375448  0.59820442    -0.40600
C421        C  0.34139660  0.95614052  0.60349990     0.32600
C422        C  0.38208278  0.94628667  0.60369699     0.14300
F423        F  0.48696317  0.06958778  0.59001330    -0.13000
F424        F  0.29463025  0.91808307  0.60819530    -0.13500
F425        F  0.40771839  0.08901922  0.58928319    -0.15800
F426        F  0.37338552  0.89968995  0.60852050    -0.14400
F427        F  0.52202330  0.03581346  0.61659553    -0.14400
F428        F  0.50326379  0.88233451  0.57822461    -0.15800
C429        C  0.20076852  0.05287559  0.65877280     0.14300
C430        C  0.19865059  0.09861248  0.65963109     0.01200
C431        C  0.19619964  0.12207856  0.64619329     0.16200
C432        C  0.19740561  0.10123889  0.63215785     0.25600
C433        C  0.20090787  0.05621274  0.63121250    -0.40700
C434        C  0.20150774  0.03160629  0.64466890     0.32700
C435        C  0.20164928  0.12338811  0.67445903     0.01300
F436        F  0.19475043  0.16649214  0.64665088    -0.13000
F437        F  0.20534149  0.98852497  0.64418394    -0.13500
C438        C  0.24551609  0.14058124  0.68356764     0.16200
C439        C  0.24849570  0.16310460  0.69766237     0.25600
C440        C  0.20748881  0.16890671  0.70303858    -0.40600
C441        C  0.16437642  0.15358699  0.69361070     0.32600
C442        C  0.16154737  0.13105957  0.67944414     0.14300
F443        F  0.28577938  0.13577431  0.67875214    -0.13000
F444        F  0.12387473  0.15802343  0.69837552    -0.13500
F445        F  0.29166339  0.17900800  0.70610168    -0.15800
F446        F  0.11882467  0.11507867  0.67080128    -0.14400
F447        F  0.20282594  0.02923165  0.67162133    -0.14400
F448        F  0.19556341  0.12553437  0.61941608    -0.15800
C449        C  0.69412225  0.03237794  0.48782615     0.14300
C450        C  0.68874663  0.98879335  0.49528423     0.01200
C451        C  0.68850323  0.94921547  0.48669203     0.16200
C452        C  0.69512189  0.95390832  0.47093216     0.25600
C453        C  0.70205260  0.99833768  0.46346765    -0.40700
C454        C  0.70060830  0.03714424  0.47212342     0.32700
C455        C  0.68463915  0.98519567  0.51204934     0.01300
F456        F  0.68378932  0.90680597  0.49365470    -0.13000
F457        F  0.70555813  0.08004282  0.46541598    -0.13500
C458        C  0.64065075  0.94532713  0.51895537     0.16200
C459        C  0.63819913  0.93978623  0.53470884     0.25600
C460        C  0.67979686  0.97407324  0.54391802    -0.40600
C461        C  0.72282579  0.01549895  0.53703031     0.32600
C462        C  0.72524247  0.02092614  0.52122624     0.14300
F463        F  0.60015143  0.91143773  0.51040060    -0.13000
F464        F  0.76389485  0.04883669  0.54548324    -0.13500
F465        F  0.59522011  0.90032629  0.54096029    -0.15800
F466        F  0.76834410  0.05968339  0.51481835    -0.14400
F467        F  0.69300145  0.07045177  0.49578823    -0.14400
F468        F  0.69700738  0.91600582  0.46311437    -0.15800
C469        C  0.81021673  0.04598641  0.34819621     0.14300
C470        C  0.82581519  0.09647551  0.34350666     0.01200
C471        C  0.82089740  0.12967386  0.35360876     0.16200
C472        C  0.80148429  0.11336688  0.36818787     0.25600
C473        C  0.78609620  0.06291643  0.37314391    -0.40700
C474        C  0.79032986  0.02922367  0.36286039     0.32700
C475        C  0.84618322  0.11528463  0.32803244     0.01300
F476        F  0.83550811  0.17853182  0.34934817    -0.13000
F477        F  0.77615566  0.98042682  0.36703589    -0.13500
C478        C  0.81638428  0.12428506  0.31760214     0.16200
C479        C  0.83689699  0.14747538  0.30361936     0.25600
C480        C  0.88820971  0.16277541  0.29970823    -0.40600
C481        C  0.91784421  0.15303591  0.31015401     0.32600
C482        C  0.89692661  0.12938619  0.32414712     0.14300
F483        F  0.76725225  0.11100153  0.32106622    -0.13000
F484        F  0.96682363  0.16567129  0.30677362    -0.13500
F485        F  0.80646743  0.15573386  0.29403103    -0.15800
F486        F  0.92661739  0.12129409  0.33406968    -0.14400
F487        F  0.81384298  0.01283096  0.33853516    -0.14400
F488        F  0.79765198  0.14742535  0.37741061    -0.15800
C489        C  0.02472019  0.25665267  0.18885750     0.14300
C490        C  0.99534656  0.27226841  0.18033053     0.01200
C491        C  0.96300515  0.28598889  0.18791978     0.16200
C492        C  0.95786011  0.28145986  0.20367101     0.25600
C493        C  0.98523988  0.26343878  0.21217475    -0.40700
C494        C  0.01982173  0.25240844  0.20467960     0.32700
C495        C  0.99664404  0.27206544  0.16351492     0.01300
F496        F  0.93570861  0.30298125  0.18001395    -0.13000
F497        F  0.04608355  0.23410975  0.21252054    -0.13500
C498        C  0.95278960  0.23751708  0.15518995     0.16200
C499        C  0.95462835  0.23533697  0.13934049     0.25600
C500        C  0.00046463  0.26781576  0.13150131    -0.40600
C501        C  0.04375210  0.30380914  0.13991579     0.32600
C502        C  0.04183588  0.30565729  0.15572357     0.14300
F503        F  0.90864533  0.20444753  0.16248820    -0.13000
F504        F  0.08831355  0.33731778  0.13286728    -0.13500
F505        F  0.91224775  0.19983928  0.13177424    -0.15800
F506        F  0.08425648  0.34036150  0.16345760    -0.14400
F507        F  0.05605322  0.24287769  0.18177584    -0.14400
F508        F  0.92521676  0.29375295  0.21063887    -0.15800
C509        C  0.24632411  0.94012875  0.48712468     0.14300
C510        C  0.24669073  0.98027648  0.49529268     0.01200
C511        C  0.24756895  0.02134282  0.48734659     0.16200
C512        C  0.24543857  0.02088022  0.47147085     0.25600
C513        C  0.24228999  0.97923012  0.46330445    -0.40700
C514        C  0.24432929  0.93964274  0.47131627     0.32700
C515        C  0.24485185  0.97879762  0.51208258     0.01300
F516        F  0.24781663  0.06062433  0.49501076    -0.13000
F517        F  0.24327169  0.89964731  0.46382914    -0.13500
C518        C  0.28493847  0.01797923  0.52048196     0.16200
C519        C  0.28125135  0.01961529  0.53620442     0.25600
C520        C  0.23711902  0.98216659  0.54389902    -0.40600
C521        C  0.19834592  0.94104416  0.53558781     0.32600
C522        C  0.20218407  0.93942205  0.51977836     0.14300
F523        F  0.32741352  0.05527096  0.51339662    -0.13000
F524        F  0.15530278  0.90438594  0.54259731    -0.13500
F525        F  0.32058515  0.05872863  0.54389935    -0.15800
F526        F  0.16295127  0.90091164  0.51189965    -0.14400
F527        F  0.24725721  0.90096786  0.49449192    -0.14400
F528        F  0.24301990  0.05936762  0.46419307    -0.15800
C529        C  0.42365541  0.00276692  0.40027551     0.14300
C530        C  0.43768397  0.97366116  0.40941734     0.01200
C531        C  0.39972634  0.93358802  0.41823585     0.16200
C532        C  0.34900890  0.92424616  0.41838250     0.25600
C533        C  0.33537098  0.95484608  0.40968198    -0.40700
C534        C  0.37314919  0.99347502  0.40036830     0.32700
C535        C  0.49200417  0.98549150  0.40978019     0.01300
F536        F  0.41235940  0.90499998  0.42723524    -0.13000
F537        F  0.36143312  0.02302733  0.39148344    -0.13500
C538        C  0.53138197  0.03308671  0.41526482     0.16200
C539        C  0.58257733  0.04392639  0.41574835     0.25600
C540        C  0.59550024  0.00737344  0.41065517    -0.40600
C541        C  0.55573554  0.96009365  0.40485063     0.32600
C542        C  0.50474819  0.94934376  0.40450577     0.14300
F543        F  0.51994973  0.06854445  0.42058793    -0.13000
F544        F  0.56583326  0.92367755  0.39954566    -0.13500
F545        F  0.61902355  0.08949986  0.42167293    -0.15800
F546        F  0.46765404  0.90350291  0.39889273    -0.14400
F547        F  0.45913721  0.04057284  0.39129633    -0.14400
F548        F  0.31419505  0.88744012  0.42774083    -0.15800
C549        C  0.96354269  0.05269030  0.42537780     0.14300
C550        C  0.95603487  0.00849253  0.43318035     0.01200
C551        C  0.90833890  0.97634898  0.44003269     0.16200
C552        C  0.86763209  0.98561576  0.43805660     0.25600
C553        C  0.87386927  0.02749589  0.42929284    -0.40700
C554        C  0.92270912  0.06227475  0.42351143     0.32700
C555        C  0.99620101  0.99351621  0.43306181     0.01300
F556        F  0.90070936  0.93492833  0.44824887    -0.13000
F557        F  0.92986917  0.10311475  0.41509314    -0.13500
C558        C  0.04590724  0.02737185  0.43845674     0.16200
C559        C  0.08499015  0.01544826  0.43675577     0.25600
C560        C  0.07505501  0.96922749  0.42969955    -0.40600
C561        C  0.02461686  0.93384616  0.42518867     0.32600
C562        C  0.98555070  0.94602324  0.42677141     0.14300
F563        F  0.05678853  0.07239236  0.44516606    -0.13000
F564        F  0.01388285  0.88918133  0.41828649    -0.13500
F565        F  0.13298380  0.04964082  0.44178147    -0.15800
F566        F  0.93791442  0.91265203  0.42135051    -0.14400
F567        F  0.00937372  0.08464148  0.41869466    -0.14400
F568        F  0.82132822  0.95254125  0.44432473    -0.15800
C569        C  0.95960329  0.53496030  0.27106329     0.14300
C570        C  0.98880813  0.51973552  0.26246179     0.01200
C571        C  0.03057186  0.55685175  0.25396976     0.16200
C572        C  0.04181655  0.60820739  0.25367586     0.25600
C573        C  0.01142320  0.62322709  0.26190790    -0.40700
C574        C  0.97082157  0.58610365  0.27085056     0.32700
C575        C  0.97625942  0.46528796  0.26267207     0.01300
F576        F  0.05943120  0.54292836  0.24558315    -0.13000
F577        F  0.94164756  0.59924456  0.27939326    -0.13500
C578        C  0.93165703  0.42657766  0.25556000     0.16200
C579        C  0.92054750  0.37523149  0.25562058     0.25600
C580        C  0.95375944  0.36165517  0.26293935    -0.40600
C581        C  0.99754745  0.40072524  0.27048638     0.32600
C582        C  0.00869650  0.45182058  0.27024353     0.14300
F583        F  0.89967299  0.43884308  0.24816575    -0.13000
F584        F  0.03027056  0.38983078  0.27803800    -0.13500
F585        F  0.87844044  0.33939001  0.24802376    -0.15800
F586        F  0.05138297  0.48838995  0.27746140    -0.14400
F587        F  0.92014273  0.50013784  0.27972061    -0.14400
F588        F  0.08073214  0.64250650  0.24476609    -0.15800
C589        C  0.00168607  0.05745449  0.23680074     0.14300
C590        C  0.97567633  0.01266993  0.24549292     0.01200
C591        C  0.93405665  0.00497378  0.25461040     0.16200
C592        C  0.92012729  0.04297553  0.25552949     0.25600
C593        C  0.94771701  0.08882395  0.24730343    -0.40700
C594        C  0.98791264  0.09532196  0.23773186     0.32700
C595        C  0.99258209  0.97436491  0.24524208     0.01300
F596        F  0.90860239  0.96174707  0.26312566    -0.13000
F597        F  0.01525250  0.13952224  0.22975061    -0.13500
C598        C  0.03442284  0.98128752  0.25414071     0.16200
C599        C  0.04758488  0.94267852  0.25480306     0.25600
C600        C  0.01886637  0.89693300  0.24657429    -0.40600
C601        C  0.97895353  0.89159255  0.23703111     0.32600
C602        C  0.96592138  0.93001440  0.23638204     0.14300
F603        F  0.06078308  0.02429164  0.26271889    -0.13000
F604        F  0.95122985  0.84802676  0.22876309    -0.13500
F605        F  0.08556741  0.94826707  0.26430207    -0.15800
F606        F  0.92622279  0.92330538  0.22746343    -0.14400
F607        F  0.04138298  0.06506967  0.22775616    -0.14400
F608        F  0.88247175  0.03672005  0.26524999    -0.15800
C609        C  0.03689530  0.84164243  0.32376048     0.14300
C610        C  0.08568468  0.85494817  0.32954940     0.01200
C611        C  0.11794072  0.84385501  0.32085507     0.16200
C612        C  0.10256398  0.82118530  0.30652019     0.25600
C613        C  0.05434236  0.80909337  0.30039150    -0.40700
C614        C  0.02139499  0.81909890  0.30931161     0.32700
C615        C  0.10247203  0.87771783  0.34496204     0.01300
F616        F  0.16431003  0.85424328  0.32640671    -0.13000
F617        F  0.97493802  0.80878290  0.30387681    -0.13500
C618        C  0.07888732  0.84765362  0.35779400     0.16200
C619        C  0.09844066  0.86600074  0.37228284     0.25600
C620        C  0.14236354  0.91522090  0.37438087    -0.40600
C621        C  0.16430445  0.94650489  0.36154032     0.32600
C622        C  0.14477359  0.92771731  0.34696799     0.14300
F623        F  0.03806966  0.79933494  0.35625311    -0.13000
F624        F  0.20581846  0.99439427  0.36298701    -0.13500
F625        F  0.07435983  0.83493535  0.38428787    -0.15800
F626        F  0.16771607  0.95802518  0.33475156    -0.14400
F627        F  0.00468178  0.85148861  0.33198555    -0.14400
F628        F  0.13504272  0.81069228  0.29868329    -0.15800
C629        C  0.03628036  0.73312458  0.18413058     0.14300
C630        C  0.99427838  0.73152219  0.17665470     0.01200
C631        C  0.95503400  0.73130634  0.18539362     0.16200
C632        C  0.95801343  0.73319239  0.20130366     0.25600
C633        C  0.00076342  0.73609681  0.20882728    -0.40700
C634        C  0.03971515  0.73570797  0.19998464     0.32700
C635        C  0.99165595  0.73025557  0.15976006     0.01300
F636        F  0.91376166  0.72937203  0.17848925    -0.13000
F637        F  0.08146661  0.73795123  0.20667346    -0.13500
C638        C  0.98405711  0.68652161  0.15173400     0.16200
C639        C  0.97966387  0.68452092  0.13587409     0.25600
C640        C  0.98422905  0.72674059  0.12768669    -0.40600
C641        C  0.99312584  0.77097881  0.13566818     0.32600
C642        C  0.99651853  0.77262348  0.15155901     0.14300
F643        F  0.97904458  0.64499580  0.15932600    -0.13000
F644        F  0.99599411  0.81164975  0.12810814    -0.13500
F645        F  0.96976346  0.64084356  0.12850288    -0.15800
F646        F  0.00403009  0.81542452  0.15897549    -0.14400
F647        F  0.07479920  0.73351237  0.17601811    -0.14400
F648        F  0.92002185  0.73425353  0.20929341    -0.15800
loop_ 
_geom_bond_atom_site_label_1 
_geom_bond_atom_site_label_2 
_geom_bond_distance 
_geom_bond_site_symmetry_2 
_ccdc_geom_bond_type 
O1           Cu9   1.984       .  S
O1           C11   1.274   1_655  A
O2           Cu9   1.963       .  S
O2           C12   1.271   1_655  A
O3           Cu9   2.055       .  S
O3           C13   1.285   1_655  A
O4           Cu9   2.059       .  S
O4           C14   1.285   1_655  A
O5          Cu10   2.003       .  S
O5           C14   1.276       .  A
O6          Cu10   2.002       .  S
O6           C13   1.276       .  A
O7          Cu10   2.047       .  S
O7           C12   1.283       .  A
O8          Cu10   2.049       .  S
O8           C11   1.284       .  A
Cu9         Cu10   2.366   1_655  S
C11         C573   1.488       .  S
C12         C600   1.471       .  S
C13         C633   1.497       .  S
C14         C613   1.500       .  S
O15         Cu23   1.985       .  S
O15          C25   1.274       .  A
O16         Cu23   1.971       .  S
O16          C26   1.272       .  A
O17         Cu23   2.049       .  S
O17          C27   1.284       .  A
O18         Cu23   2.051       .  S
O18          C28   1.284       .  A
O19         Cu24   1.985       .  S
O19          C28   1.274       .  A
O20         Cu24   1.974   1_545  S
O20          C27   1.272   1_545  A
O21         Cu24   2.057   1_545  S
O21          C26   1.285   1_545  A
O22         Cu24   2.067       .  S
O22          C25   1.286       .  A
Cu23        Cu24   2.366       .  S
C25         C620   1.498       .  S
C26         C513   1.485       .  S
C27         C560   1.480       .  S
C28         C533   1.489       .  S
O29         Cu37   1.984       .  S
O29          C39   1.274       .  A
O30         Cu37   1.964       .  S
O30          C40   1.271       .  A
O31         Cu37   2.049   1_455  S
O31          C41   1.283   1_455  A
O32         Cu37   2.055       .  S
O32          C42   1.285       .  A
O33         Cu38   1.997       .  S
O33          C42   1.275       .  A
O34         Cu38   1.988       .  S
O34          C41   1.274       .  A
O35         Cu38   2.049       .  S
O35          C40   1.283       .  A
O36         Cu38   2.049       .  S
O36          C39   1.284       .  A
Cu37        Cu38   2.368       .  S
C39         C580   1.494       .  S
C40         C593   1.469       .  S
C41         C493   1.482       .  S
C42         C480   1.498       .  S
O43         Cu51   1.993       .  S
O43          C53   1.275       .  A
O44         Cu51   1.985       .  S
O44          C54   1.274       .  A
O45         Cu51   2.049       .  S
O45          C55   1.283       .  A
O46         Cu51   2.049       .  S
O46          C56   1.284       .  A
O47         Cu52   1.986       .  S
O47          C56   1.274   1_565  A
O48         Cu52   1.974       .  S
O48          C55   1.273   1_565  A
O49         Cu52   2.047       .  S
O49          C54   1.284   1_565  A
O50         Cu52   2.058   1_545  S
O50          C53   1.284       .  A
Cu51        Cu52   2.365   1_545  S
C53         C473   1.500       .  S
C54         C453   1.489   1_545  S
C55         C553   1.478       .  S
C56         C540   1.495       .  S
O57         Cu65   1.972       .  S
O57          C67   1.272   1_565  A
O58         Cu65   1.969       .  S
O58          C68   1.272   1_565  A
O59         Cu65   2.052       .  S
O59          C69   1.284       .  A
O60         Cu65   2.057       .  S
O60          C70   1.285   1_565  A
O61         Cu66   1.976       .  S
O61          C70   1.272       .  A
O62         Cu66   1.972       .  S
O62          C69   1.272   1_545  A
O63         Cu66   2.056       .  S
O63          C68   1.285       .  A
O64         Cu66   2.057       .  S
O64          C67   1.285       .  A
Cu65        Cu66   2.367   1_565  S
C67         C420   1.495       .  S
C68         C400   1.481       .  S
C69         C520   1.484       .  S
C70         C433   1.485       .  S
O71         Cu79   1.988       .  S
O71          C81   1.274       .  A
O72         Cu79   1.974       .  S
O72          C82   1.273       .  A
O73         Cu79   2.052       .  S
O73          C83   1.284       .  A
O74         Cu79   2.047       .  S
O74          C84   1.283       .  A
O75         Cu80   1.985       .  S
O75          C84   1.274       .  A
O76         Cu80   1.971       .  S
O76          C83   1.273       .  A
O77         Cu80   2.043       .  S
O77          C82   1.282       .  A
O78         Cu80   2.042       .  S
O78          C81   1.283       .  A
Cu79        Cu80   2.367       .  S
C81         C373   1.492       .  S
C82         C353   1.472       .  S
C83         C340   1.492       .  S
C84         C440   1.489       .  S
O85         Cu93   1.980       .  S
O85          C95   1.273       .  A
O86         Cu93   1.967       .  S
O86          C96   1.271       .  A
O87         Cu93   2.049       .  S
O87          C97   1.284       .  A
O88         Cu93   2.058       .  S
O88          C98   1.285       .  A
O89         Cu94   1.998       .  S
O89          C98   1.275       .  A
O90         Cu94   1.985       .  S
O90          C97   1.274       .  A
O91         Cu94   2.058       .  S
O91          C96   1.285       .  A
O92         Cu94   2.051       .  S
O92          C95   1.284       .  A
Cu93        Cu94   2.368       .  S
C95         C413   1.488       .  S
C96         C393   1.479       .  S
C97         C460   1.486       .  S
C98         C313   1.493       .  S
O99        Cu107   1.978       .  S
O99         C109   1.273       .  A
O100       Cu107   1.982       .  S
O100        C110   1.273       .  A
O101       Cu107   2.064       .  S
O101        C111   1.285       .  A
O102       Cu107   2.062       .  S
O102        C112   1.286       .  A
O103       Cu108   1.983       .  S
O103        C112   1.274       .  A
O104       Cu108   1.999       .  S
O104        C111   1.276       .  A
O105       Cu108   2.041       .  S
O105        C110   1.282       .  A
O106       Cu108   2.043       .  S
O106        C109   1.283       .  A
Cu107      Cu108   2.366       .  S
C109        C360   1.486       .  S
C110        C380   1.475       .  S
C111        C320   1.503       .  S
C112        C293   1.495       .  S
O113       Cu121   1.981       .  S
O113        C123   1.273       .  A
O114       Cu121   1.959       .  S
O114        C124   1.271       .  A
O115       Cu121   2.057       .  S
O115        C125   1.285       .  A
O116       Cu121   2.063       .  S
O116        C126   1.285       .  A
O117       Cu122   2.004       .  S
O117        C126   1.276       .  A
O118       Cu122   1.989       .  S
O118        C125   1.273       .  A
O119       Cu122   2.059       .  S
O119        C124   1.285       .  A
O120       Cu122   2.052       .  S
O120        C123   1.285       .  A
Cu121      Cu122   2.366       .  S
C123        C240   1.492       .  S
C124        C253   1.482       .  S
C125        C300   1.482       .  S
C126        C273   1.502       .  S
O127       Cu135   2.008       .  S
O127        C137   1.277       .  A
O128       Cu135   2.000       .  S
O128        C138   1.274       .  A
O129       Cu135   2.048       .  S
O129        C139   1.283       .  A
O130       Cu135   2.049       .  S
O130        C140   1.284       .  A
O131       Cu136   1.979       .  S
O131        C140   1.273       .  A
O132       Cu136   1.957       .  S
O132        C139   1.270       .  A
O133       Cu136   2.061   1_455  S
O133        C138   1.285   1_455  A
O134       Cu136   2.058       .  S
O134        C137   1.285       .  A
Cu135      Cu136   2.367       .  S
C137        C280   1.504       .  S
C138        C640   1.485       .  S
C139        C213   1.468       .  S
C140        C193   1.495       .  S
O141       Cu149   1.981       .  S
O141        C151   1.273       .  A
O142       Cu149   1.978       .  S
O142        C152   1.272       .  A
O143       Cu149   2.053       .  S
O143        C153   1.284       .  A
O144       Cu149   2.057       .  S
O144        C154   1.285       .  A
O145       Cu150   1.979       .  S
O145        C154   1.273       .  A
O146       Cu150   1.962       .  S
O146        C153   1.270       .  A
O147       Cu150   2.046       .  S
O147        C152   1.284       .  A
O148       Cu150   2.057       .  S
O148        C151   1.285       .  A
Cu149      Cu150   2.366       .  S
C151        C180   1.498       .  S
C152        C333   1.483       .  S
C153        C260   1.472       .  S
C154        C233   1.495       .  S
O155       Cu163   1.984       .  S
O155        C165   1.273       .  A
O156       Cu163   1.988       .  S
O156        C166   1.274       .  A
O157       Cu163   2.048       .  S
O157        C167   1.283       .  A
O158       Cu163   2.047       .  S
O158        C168   1.284       .  A
O159       Cu164   1.964       .  S
O159        C168   1.271   1_655  A
O160       Cu164   1.973       .  S
O160        C167   1.272   1_655  A
O161       Cu164   2.053       .  S
O161        C166   1.284   1_655  A
O162       Cu164   2.054       .  S
O162        C165   1.285   1_655  A
Cu163      Cu164   2.365   1_455  S
C165        C500   1.492       .  S
C166        C173   1.498       .  S
C167        C200   1.480       .  S
C168        C220   1.484   1_455  S
C169        C170   1.409       .  A
C169        C174   1.408       .  A
C169        F187   1.358   1_455  S
C170        C175   1.490   1_554  S
C170        C171   1.401       .  A
C171        C172   1.397       .  A
C171        F176   1.358       .  S
C172        C173   1.416       .  A
C172        F188   1.358       .  S
C173        C174   1.412       .  A
C174        F177   1.357   1_455  S
C175        C178   1.401       .  A
C175        C182   1.409       .  A
C178        C179   1.398       .  A
C178        F183   1.358       .  S
C179        C180   1.417       .  A
C179        F185   1.358       .  S
C180        C181   1.410       .  A
C181        C182   1.407       .  A
C181        F184   1.357       .  S
C182        F186   1.357   1_556  S
C189        C190   1.399   1_455  A
C189        C194   1.397       .  A
C189        F207   1.358       .  S
C190        C195   1.483   1_655  S
C190        C191   1.407       .  A
C191        C192   1.404       .  A
C191        F196   1.358       .  S
C192        C193   1.410       .  A
C192        F208   1.357       .  S
C193        C194   1.417   1_655  A
C194        F197   1.358       .  S
C195        C198   1.409       .  A
C195        C202   1.402   1_455  A
C198        C199   1.404       .  A
C198        F203   1.358       .  S
C199        C200   1.406       .  A
C199        F205   1.358       .  S
C200        C201   1.410   1_455  A
C201        C202   1.397       .  A
C201        F204   1.358       .  S
C202        F206   1.358       .  S
C209        C210   1.403       .  A
C209        C214   1.394       .  A
C209        F227   1.358       .  S
C210        C215   1.479   1_565  S
C210        C211   1.408       .  A
C211        C212   1.403       .  A
C211        F216   1.357       .  S
C212        C213   1.404       .  A
C212        F228   1.357       .  S
C213        C214   1.406       .  A
C214        F217   1.359       .  S
C215        C218   1.399       .  A
C215        C222   1.408   1_655  A
C218        C219   1.395       .  A
C218        F223   1.358   1_545  S
C219        C220   1.414       .  A
C219        F225   1.358       .  S
C220        C221   1.407   1_655  A
C221        C222   1.402       .  A
C221        F224   1.357       .  S
C222        F226   1.358       .  S
C229        C230   1.409       .  A
C229        C234   1.407       .  A
C229        F247   1.358       .  S
C230        C235   1.489       .  S
C230        C231   1.401       .  A
C231        C232   1.397       .  A
C231        F236   1.358       .  S
C232        C233   1.415       .  A
C232        F248   1.358       .  S
C233        C234   1.410       .  A
C234        F237   1.357       .  S
C235        C238   1.402       .  A
C235        C242   1.409       .  A
C238        C239   1.400       .  A
C238        F243   1.358       .  S
C239        C240   1.415       .  A
C239        F245   1.358       .  S
C240        C241   1.408       .  A
C241        C242   1.404       .  A
C241        F244   1.357       .  S
C242        F246   1.358       .  S
C249        C250   1.401       .  A
C249        C254   1.392       .  A
C249        F267   1.358       .  S
C250        C255   1.487       .  S
C250        C251   1.412       .  A
C251        C252   1.407       .  A
C251        F256   1.357       .  S
C252        C253   1.405       .  A
C252        F268   1.357       .  S
C253        C254   1.411       .  A
C254        F257   1.359       .  S
C255        C258   1.412   1_565  A
C255        C262   1.404   1_665  A
C258        C259   1.400       .  A
C258        F263   1.358       .  S
C259        C260   1.400   1_655  A
C259        F265   1.358       .  S
C260        C261   1.409       .  A
C261        C262   1.399       .  A
C261        F264   1.358       .  S
C262        F266   1.358   1_545  S
C269        C270   1.409       .  A
C269        C274   1.412       .  A
C269        F287   1.357   1_556  S
C270        C275   1.497   1_556  S
C270        C271   1.404       .  A
C271        C272   1.402       .  A
C271        F276   1.358       .  S
C272        C273   1.414       .  A
C272        F288   1.358       .  S
C273        C274   1.412       .  A
C274        F277   1.357       .  S
C275        C278   1.404       .  A
C275        C282   1.408       .  A
C278        C279   1.403       .  A
C278        F283   1.358       .  S
C279        C280   1.415       .  A
C279        F285   1.358       .  S
C280        C281   1.413       .  A
C281        C282   1.411       .  A
C281        F284   1.357       .  S
C282        F286   1.357       .  S
C289        C290   1.401       .  A
C289        C294   1.399       .  A
C289        F307   1.358       .  S
C290        C295   1.488       .  S
C290        C291   1.408       .  A
C291        C292   1.408       .  A
C291        F296   1.357       .  S
C292        C293   1.410       .  A
C292        F308   1.357       .  S
C293        C294   1.415       .  A
C294        F297   1.358       .  S
C295        C298   1.404       .  A
C295        C302   1.408       .  A
C298        C299   1.404       .  A
C298        F303   1.358       .  S
C299        C300   1.409       .  A
C299        F305   1.358       .  S
C300        C301   1.406       .  A
C301        C302   1.405       .  A
C301        F304   1.358       .  S
C302        F306   1.358       .  S
C309        C310   1.408       .  A
C309        C314   1.409       .  A
C309        F327   1.357       .  S
C310        C315   1.495       .  S
C310        C311   1.406       .  A
C311        C312   1.403       .  A
C311        F316   1.358       .  S
C312        C313   1.411       .  A
C312        F328   1.358       .  S
C313        C314   1.409       .  A
C314        F317   1.357       .  S
C315        C318   1.403       .  A
C315        C322   1.409       .  A
C318        C319   1.401       .  A
C318        F323   1.358       .  S
C319        C320   1.416       .  A
C319        F325   1.358       .  S
C320        C321   1.412       .  A
C321        C322   1.411       .  A
C321        F324   1.357       .  S
C322        F326   1.357       .  S
C329        C330   1.404       .  A
C329        C334   1.400       .  A
C329        F347   1.358       .  S
C330        C335   1.486       .  S
C330        C331   1.409       .  A
C331        C332   1.401       .  A
C331        F336   1.358       .  S
C332        C333   1.406       .  A
C332        F348   1.358       .  S
C333        C334   1.411       .  A
C334        F337   1.358       .  S
C335        C338   1.400       .  A
C335        C342   1.409       .  A
C338        C339   1.394       .  A
C338        F343   1.358       .  S
C339        C340   1.414       .  A
C339        F345   1.358       .  S
C340        C341   1.410       .  A
C341        C342   1.407       .  A
C341        F344   1.357       .  S
C342        F346   1.358       .  S
C349        C350   1.410   1_455  A
C349        C354   1.406   1_565  A
C349        F367   1.357       .  S
C350        C355   1.484       .  S
C350        C351   1.405   1_565  A
C351        C352   1.393   1_655  A
C351        F356   1.358   1_545  S
C352        C353   1.404       .  A
C352        F368   1.358       .  S
C353        C354   1.406       .  A
C354        F357   1.358       .  S
C355        C358   1.409       .  A
C355        C362   1.402       .  A
C358        C359   1.400       .  A
C358        F363   1.358   1_565  S
C359        C360   1.405       .  A
C359        F365   1.357       .  S
C360        C361   1.414       .  A
C361        C362   1.399       .  A
C361        F364   1.358       .  S
C362        F366   1.358       .  S
C369        C370   1.404       .  A
C369        C374   1.403       .  A
C369        F387   1.358       .  S
C370        C375   1.479       .  S
C370        C371   1.399       .  A
C371        C372   1.400       .  A
C371        F376   1.358       .  S
C372        C373   1.416       .  A
C372        F388   1.358       .  S
C373        C374   1.410       .  A
C374        F377   1.357       .  S
C375        C378   1.402       .  A
C375        C382   1.406       .  A
C378        C379   1.399       .  A
C378        F383   1.358       .  S
C379        C380   1.407       .  A
C379        F385   1.358       .  S
C380        C381   1.405       .  A
C381        C382   1.403       .  A
C381        F384   1.358       .  S
C382        F386   1.358       .  S
C389        C390   1.404       .  A
C389        C394   1.397       .  A
C389        F407   1.358   1_565  S
C390        C395   1.490       .  S
C390        C391   1.413       .  A
C391        C392   1.405       .  A
C391        F396   1.358       .  S
C392        C393   1.403       .  A
C392        F408   1.357       .  S
C393        C394   1.410       .  A
C394        F397   1.359   1_565  S
C395        C398   1.413   1_665  A
C395        C402   1.404       .  A
C398        C399   1.405       .  A
C398        F403   1.358       .  S
C399        C400   1.404       .  A
C399        F405   1.358       .  S
C400        C401   1.410   1_545  A
C401        C402   1.397   1_455  A
C401        F404   1.358       .  S
C402        F406   1.358       .  S
C409        C410   1.402       .  A
C409        C414   1.399       .  A
C409        F427   1.358   1_565  S
C410        C415   1.486       .  S
C410        C411   1.409       .  A
C411        C412   1.404       .  A
C411        F416   1.358       .  S
C412        C413   1.408       .  A
C412        F428   1.358       .  S
C413        C414   1.413       .  A
C414        F417   1.358   1_565  S
C415        C418   1.409   1_565  A
C415        C422   1.400       .  A
C418        C419   1.406       .  A
C418        F423   1.358       .  S
C419        C420   1.410       .  A
C419        F425   1.357       .  S
C420        C421   1.417   1_545  A
C421        C422   1.396       .  A
C421        F424   1.358       .  S
C422        F426   1.358       .  S
C429        C430   1.410       .  A
C429        C434   1.406       .  A
C429        F447   1.358       .  S
C430        C435   1.487       .  S
C430        C431   1.402       .  A
C431        C432   1.398       .  A
C431        F436   1.358       .  S
C432        C433   1.412       .  A
C432        F448   1.358       .  S
C433        C434   1.406       .  A
C434        F437   1.357   1_545  S
C435        C438   1.403       .  A
C435        C442   1.408       .  A
C438        C439   1.399       .  A
C438        F443   1.358       .  S
C439        C440   1.412       .  A
C439        F445   1.358       .  S
C440        C441   1.409       .  A
C441        C442   1.405       .  A
C441        F444   1.357       .  S
C442        F446   1.358       .  S
C449        C450   1.402   1_545  A
C449        C454   1.399       .  A
C449        F467   1.358       .  S
C450        C455   1.486       .  S
C450        C451   1.408       .  A
C451        C452   1.404       .  A
C451        F456   1.358       .  S
C452        C453   1.408       .  A
C452        F468   1.358       .  S
C453        C454   1.413   1_565  A
C454        F457   1.358       .  S
C455        C458   1.403       .  A
C455        C462   1.408   1_565  A
C458        C459   1.400       .  A
C458        F463   1.358       .  S
C459        C460   1.411       .  A
C459        F465   1.358       .  S
C460        C461   1.407   1_565  A
C461        C462   1.404       .  A
C461        F464   1.357       .  S
C462        F466   1.358       .  S
C469        C470   1.408       .  A
C469        C474   1.411       .  A
C469        F487   1.357       .  S
C470        C475   1.490       .  S
C470        C471   1.401       .  A
C471        C472   1.398       .  A
C471        F476   1.358       .  S
C472        C473   1.415       .  A
C472        F488   1.358       .  S
C473        C474   1.413       .  A
C474        F477   1.357   1_545  S
C475        C478   1.403       .  A
C475        C482   1.406       .  A
C478        C479   1.401       .  A
C478        F483   1.358       .  S
C479        C480   1.414       .  A
C479        F485   1.358       .  S
C480        C481   1.412       .  A
C481        C482   1.408       .  A
C481        F484   1.357       .  S
C482        F486   1.357       .  S
C489        C490   1.409   1_455  A
C489        C494   1.405       .  A
C489        F507   1.358       .  S
C490        C495   1.487       .  S
C490        C491   1.403       .  A
C491        C492   1.400       .  A
C491        F496   1.358       .  S
C492        C493   1.408       .  A
C492        F508   1.358       .  S
C493        C494   1.406   1_655  A
C494        F497   1.357       .  S
C495        C498   1.408       .  A
C495        C502   1.402   1_655  A
C498        C499   1.404       .  A
C498        F503   1.358       .  S
C499        C500   1.408   1_655  A
C499        F505   1.357       .  S
C500        C501   1.415       .  A
C501        C502   1.400       .  A
C501        F504   1.358       .  S
C502        F506   1.358       .  S
C509        C510   1.401       .  A
C509        C514   1.398       .  A
C509        F527   1.358       .  S
C510        C515   1.485       .  S
C510        C511   1.409   1_565  A
C511        C512   1.404       .  A
C511        F516   1.358       .  S
C512        C513   1.406   1_545  A
C512        F528   1.357       .  S
C513        C514   1.412       .  A
C514        F517   1.358       .  S
C515        C518   1.401   1_565  A
C515        C522   1.410       .  A
C518        C519   1.397       .  A
C518        F523   1.358       .  S
C519        C520   1.412   1_545  A
C519        F525   1.358       .  S
C520        C521   1.406       .  A
C521        C522   1.405       .  A
C521        F524   1.358       .  S
C522        F526   1.358       .  S
C529        C530   1.402   1_545  A
C529        C534   1.400   1_545  A
C529        F547   1.358       .  S
C530        C535   1.487       .  S
C530        C531   1.408       .  A
C531        C532   1.405       .  A
C531        F536   1.358       .  S
C532        C533   1.409       .  A
C532        F548   1.358       .  S
C533        C534   1.412       .  A
C534        F537   1.358   1_565  S
C535        C538   1.408   1_565  A
C535        C542   1.401       .  A
C538        C539   1.405       .  A
C538        F543   1.358       .  S
C539        C540   1.411       .  A
C539        F545   1.357       .  S
C540        C541   1.416   1_545  A
C541        C542   1.400       .  A
C541        F544   1.358       .  S
C542        F546   1.358       .  S
C549        C550   1.411       .  A
C549        C554   1.405       .  A
C549        F567   1.358   1_655  S
C550        C555   1.486   1_545  S
C550        C551   1.403   1_545  A
C551        C552   1.396       .  A
C551        F556   1.358       .  S
C552        C553   1.408   1_565  A
C552        F568   1.359       .  S
C553        C554   1.404       .  A
C554        F557   1.357       .  S
C555        C558   1.403   1_665  A
C555        C562   1.411       .  A
C558        C559   1.398       .  A
C558        F563   1.358       .  S
C559        C560   1.411   1_545  A
C559        F565   1.358       .  S
C560        C561   1.403       .  A
C561        C562   1.402   1_455  A
C561        F564   1.357       .  S
C562        F566   1.358       .  S
C569        C570   1.401       .  A
C569        C574   1.399       .  A
C569        F587   1.358       .  S
C570        C575   1.484       .  S
C570        C571   1.407   1_655  A
C571        C572   1.405       .  A
C571        F576   1.358       .  S
C572        C573   1.408       .  A
C572        F588   1.358       .  S
C573        C574   1.412   1_455  A
C574        F577   1.358       .  S
C575        C578   1.407       .  A
C575        C582   1.400   1_655  A
C578        C579   1.406       .  A
C578        F583   1.358       .  S
C579        C580   1.411       .  A
C579        F585   1.357       .  S
C580        C581   1.415       .  A
C581        C582   1.398   1_655  A
C581        F584   1.358   1_655  S
C582        F586   1.358       .  S
C589        C590   1.399   1_455  A
C589        C594   1.396   1_455  A
C589        F607   1.358       .  S
C590        C595   1.474   1_545  S
C590        C591   1.407       .  A
C591        C592   1.403       .  A
C591        F596   1.358   1_545  S
C592        C593   1.403       .  A
C592        F608   1.358       .  S
C593        C594   1.407       .  A
C594        F597   1.358   1_655  S
C595        C598   1.407   1_655  A
C595        C602   1.399       .  A
C598        C599   1.403       .  A
C598        F603   1.358   1_565  S
C599        C600   1.404       .  A
C599        F605   1.358       .  S
C600        C601   1.408   1_455  A
C601        C602   1.395       .  A
C601        F604   1.359       .  S
C602        F606   1.358       .  S
C609        C610   1.408       .  A
C609        C614   1.410       .  A
C609        F627   1.358       .  S
C610        C615   1.493       .  S
C610        C611   1.403       .  A
C611        C612   1.402       .  A
C611        F616   1.358       .  S
C612        C613   1.413       .  A
C612        F628   1.358       .  S
C613        C614   1.412       .  A
C614        F617   1.357   1_455  S
C615        C618   1.401       .  A
C615        C622   1.410       .  A
C618        C619   1.401       .  A
C618        F623   1.358       .  S
C619        C620   1.416       .  A
C619        F625   1.358       .  S
C620        C621   1.409       .  A
C621        C622   1.410       .  A
C621        F624   1.357       .  S
C622        F626   1.357       .  S
C629        C630   1.404   1_455  A
C629        C634   1.404       .  A
C629        F647   1.358       .  S
C630        C635   1.494       .  S
C630        C631   1.408       .  A
C631        C632   1.408       .  A
C631        F636   1.357       .  S
C632        C633   1.410   1_655  A
C632        F648   1.357       .  S
C633        C634   1.413       .  A
C634        F637   1.358       .  S
C635        C638   1.407       .  A
C635        C642   1.408       .  A
C638        C639   1.406       .  A
C638        F643   1.358       .  S
C639        C640   1.407       .  A
C639        F645   1.358       .  S
C640        C641   1.407       .  A
C641        C642   1.407       .  A
C641        F644   1.358       .  S
C642        F646   1.358   1_655  S
