geometry optimzed in LAMMPS
_audit_creation_date              2020-12-01 
_audit_creation_method            'lammps2cif' 
_symmetry_space_group_name_H-M    'P1' 
_symmetry_Int_Tables_number       1 
_symmetry_cell_setting            triclinic 
loop_ 
_symmetry_equiv_pos_as_xyz 
  x,y,z 
_cell_length_a                    42.60855013 
_cell_length_b                    42.512094876248355 
_cell_length_c                    42.50698153779548 
_cell_angle_alpha                 89.90258201327129 
_cell_angle_beta                  90.20414836057272 
_cell_angle_gamma                 90.01684019391007 
loop_ 
_atom_site_label 
_atom_site_type_symbol 
_atom_site_fract_x 
_atom_site_fract_y 
_atom_site_fract_z 
_atom_site_charge 
C1          C  0.09638788  0.69798904  0.94374363     0.81600
N2          N  0.07759178  0.67951723  0.96208985    -0.76700
C3          C  0.04862825  0.67049599  0.95142515     0.84000
N4          N  0.03953300  0.67881180  0.92168284    -0.76700
C5          C  0.05855905  0.69724769  0.90359088     0.84100
N6          N  0.08649821  0.70682733  0.91494945    -0.78400
C7          C  0.84658269  0.69691867  0.94405183     0.81600
N8          N  0.86442380  0.67736905  0.96243339    -0.76700
C9          C  0.89461445  0.67038905  0.95398085     0.84000
N10         N  0.90593710  0.68165551  0.92613502    -0.76700
C11         C  0.88781582  0.70089789  0.90786514     0.84100
N12         N  0.85864185  0.70855343  0.91717202    -0.78400
C13         C  0.89084293  0.70045773  0.15140635     0.81600
N14         N  0.90921991  0.68100179  0.13381717    -0.76700
C15         C  0.90090978  0.67385143  0.10360864     0.84000
N16         N  0.87325590  0.68501478  0.09185503    -0.76700
C17         C  0.85490565  0.70424494  0.10964357     0.84100
N18         N  0.86392818  0.71202322  0.13912049    -0.78400
C19         C  0.05473358  0.70004023  0.15201053     0.81600
N20         N  0.08218872  0.71116213  0.14086510    -0.76700
C21         C  0.09212702  0.70332041  0.11184524     0.84000
N22         N  0.07408915  0.68446987  0.09320651    -0.76700
C23         C  0.04577727  0.67385330  0.10367674     0.84100
N24         N  0.03657358  0.68096727  0.13359808    -0.78400
C25         C  0.88931532  0.43664117  0.15292875     0.81600
N26         N  0.90778782  0.45568876  0.13495486    -0.76700
C27         C  0.89784721  0.46500619  0.10584947     0.84000
N28         N  0.86858188  0.45653393  0.09579063    -0.76700
C29         C  0.85027103  0.43749945  0.11399034     0.84100
N30         N  0.86097287  0.42747661  0.14215076    -0.78400
C31         C  0.85269720  0.43549803  0.94158822     0.81600
N32         N  0.86488795  0.42529757  0.91417171    -0.76700
C33         C  0.89400992  0.43396986  0.90524607     0.84000
N34         N  0.91173060  0.45267846  0.92450654    -0.76700
C35         C  0.90015080  0.46215817  0.95294078     0.84100
N36         N  0.87018657  0.45420725  0.96089211    -0.78400
C37         C  0.09495865  0.43301687  0.94878017     0.81600
N38         N  0.08429301  0.42246295  0.92092113    -0.76700
C39         C  0.05623263  0.43167441  0.90966704     0.84000
N40         N  0.03791423  0.45154757  0.92688100    -0.76700
C41         C  0.04779607  0.46141275  0.95586611     0.84100
N42         N  0.07690500  0.45279366  0.96634347    -0.78400
C43         C  0.05892596  0.43385513  0.15034905     0.81600
N44         N  0.04093125  0.45375901  0.13259237    -0.76700
C45         C  0.05129844  0.46388524  0.10390198     0.84000
N46         N  0.08056427  0.45515329  0.09404146    -0.76700
C47         C  0.09836557  0.43521145  0.11198895     0.84100
N48         N  0.08719649  0.42458014  0.13968736    -0.78400
O49         O  0.03492625  0.61843256  0.96344288    -0.73900
O50         O  0.00975641  0.65745252  0.99051894    -0.52800
C51         C  0.02968012  0.64754407  0.96972401     0.79800
O52         O  0.90973772  0.51442619  0.96715370    -0.58500
O53         O  0.93836857  0.47646373  0.99254397    -0.51600
C54         C  0.91738462  0.48561769  0.97225752     0.71800
O55         O  0.90562006  0.61814896  0.96853363    -0.73100
O56         O  0.93607961  0.65682850  0.99031287    -0.53700
C57         C  0.91331766  0.64715533  0.97237209     0.77800
O58         O  0.03525046  0.51411751  0.96625563    -0.58200
O59         O  0.00933417  0.47623541  0.99437582    -0.51400
C60         C  0.02946045  0.48527278  0.97340009     0.74400
Zr61       Zr  0.01798854  0.56665019  0.98156488     2.54700
O62         O  0.01379991  0.56424254  0.92448662    -0.78800
O63         O  0.07510560  0.56563471  0.98292351    -0.92200
Zr64       Zr  0.92555075  0.56670150  0.98440037     2.64700
O65         O  0.92626624  0.56930795  0.92720621    -0.97200
O66         O  0.86865414  0.56336235  0.98823090    -0.79200
O67         O  0.97172366  0.59793671  0.98137793    -0.82600
O68         O  0.97181412  0.53559426  0.98306331    -2.17300
O69         O  0.03936140  0.51648249  0.09089636    -0.66000
O70         O  0.01106708  0.47781065  0.06625426    -0.50600
C71         C  0.03267505  0.48740259  0.08564484     0.72800
O72         O  0.91409152  0.62122380  0.09405492    -0.58900
O73         O  0.93730237  0.65879562  0.06323355    -0.50900
C74         C  0.91883661  0.64995370  0.08577989     0.74600
O75         O  0.91118112  0.51712409  0.09410650    -0.70300
O76         O  0.93647219  0.47822808  0.06687024    -0.49000
C77         C  0.91649326  0.48808255  0.08762660     0.76000
O78         O  0.03487234  0.62122678  0.09165417    -0.65600
O79         O  0.00857297  0.65910048  0.06364398    -0.52800
C80         C  0.02835371  0.65006556  0.08508406     0.74400
Zr81       Zr  0.02101700  0.56840603  0.07389056     2.77500
O82         O  0.02047969  0.56953114  0.13116683    -0.96400
O83         O  0.07788476  0.57016586  0.06828160    -0.77200
Zr84       Zr  0.92903418  0.56867267  0.07669212     2.70100
O85         O  0.93382674  0.56914332  0.13381462    -0.78400
O86         O  0.87198360  0.57137078  0.07499229    -0.97500
Zr87       Zr  0.97320440  0.63060826  0.02721738     2.21500
Zr88       Zr  0.97336830  0.50450344  0.03018748     2.11100
O89         O  0.97497534  0.53705878  0.07630655    -2.46200
O90         O  0.97504320  0.59981997  0.07444690    -0.78200
O91         O  0.01977044  0.53621789  0.02834718    -0.70400
O92         O  0.92674807  0.59891604  0.02984757    -2.31400
O93         O  0.01988761  0.59892764  0.02704962    -2.27600
O94         O  0.92681707  0.53621167  0.03126452    -0.72200
H95         H  0.97148431  0.52230849  0.96468423     0.79800
H96         H  0.90821029  0.61197914  0.03029868     0.80900
H97         H  0.97548831  0.52420835  0.09504165     0.83100
H98         H  0.03832499  0.61210224  0.02648077     0.80700
H99         H  0.86361464  0.57299835  0.00877326     0.43800
H100        H  0.86537631  0.55173572  0.06436821     0.42700
H101        H  0.95154879  0.58359060  0.13814560     0.42400
H102        H  0.00783698  0.55103571  0.13745590     0.40300
H103        H  0.08318935  0.55102045  0.05617899     0.43500
H104        H  0.08122765  0.58430870  0.99540513     0.38300
H105        H  0.99956725  0.58177355  0.91879622     0.44400
H106        H  0.93618846  0.54939271  0.92043935     0.40800
H107        H  0.04221771  0.56415357  0.13748442     0.45700
H108        H  0.08150374  0.57076753  0.96113928     0.44400
H109        H  0.90397000  0.56715117  0.92091749     0.44600
H110        H  0.86540623  0.56854457  0.09713536     0.44900
C111        C  0.60738797  0.98437781  0.14876546     0.81600
N112        N  0.61777262  0.95666353  0.13758618    -0.76700
C113        C  0.60876482  0.94639685  0.10901257     0.84000
N114        N  0.58940385  0.96443053  0.09077248    -0.76700
C115        C  0.57966219  0.99314209  0.10130215     0.84100
N116        N  0.58803534  0.00264699  0.13081332    -0.78400
C117        C  0.60905080  0.98416705  0.90585121     0.81600
N118        N  0.61651622  0.95496561  0.91592038    -0.76700
C119        C  0.60492706  0.94358271  0.94321842     0.84000
N120        N  0.58588164  0.96209368  0.96118023    -0.76700
C121        C  0.57912377  0.99220451  0.95202160     0.84100
N122        N  0.59013531  0.00284574  0.92377429    -0.78400
C123        C  0.60324889  0.19410116  0.94175535     0.81600
N124        N  0.58475014  0.17558300  0.96040574    -0.76700
C125        C  0.57727186  0.14564143  0.95116700     0.84000
N126        N  0.58732641  0.13518934  0.92249575    -0.76700
C127        C  0.60583559  0.15392594  0.90414203     0.84100
N128        N  0.61376781  0.18288839  0.91411699    -0.78400
C129        C  0.60759657  0.19136202  0.10937573     0.81600
N130        N  0.58865190  0.17317465  0.09087991    -0.76700
C131        C  0.57853365  0.14456826  0.10148249     0.84000
N132        N  0.58622113  0.13525303  0.13132057    -0.76700
C133        C  0.60510214  0.15368078  0.14964308     0.84100
N134        N  0.61578407  0.18132448  0.13834213    -0.78400
C135        C  0.34040020  0.18805354  0.94085982     0.81600
N136        N  0.35936085  0.17027069  0.95983461    -0.76700
C137        C  0.36941527  0.14137646  0.95004618     0.84000
N138        N  0.36174124  0.13145539  0.92045090    -0.76700
C139        C  0.34279196  0.14942243  0.90168100     0.84100
N140        N  0.33212244  0.17731891  0.91221029    -0.78400
C141        C  0.34678393  0.97941479  0.90173402     0.81600
N142        N  0.33823036  0.95066651  0.91203112    -0.76700
C143        C  0.34718332  0.94013785  0.94062023     0.84000
N144        N  0.36469176  0.95914678  0.95983212    -0.76700
C145        C  0.37258668  0.98893850  0.95035990     0.84100
N146        N  0.36412204  0.99867112  0.92079924    -0.78400
C147        C  0.34470069  0.98376807  0.15164376     0.81600
N148        N  0.36354403  0.00224142  0.13346861    -0.76700
C149        C  0.37117910  0.99303765  0.10371272     0.84000
N150        N  0.36096944  0.96450419  0.09301904    -0.76700
C151        C  0.34214150  0.94617423  0.11143716     0.84100
N152        N  0.33394525  0.95613446  0.14037628    -0.78400
C153        C  0.34190805  0.18706314  0.11278221     0.81600
N154        N  0.36028659  0.16891459  0.09386568    -0.76700
C155        C  0.37004615  0.13995529  0.10378137     0.84000
N156        N  0.36269418  0.13023571  0.13351883    -0.76700
C157        C  0.34419350  0.14850638  0.15225936     0.84100
N158        N  0.33374034  0.17653631  0.14156997    -0.78400
O159        O  0.52731095  0.00492883  0.08950624    -0.73900
O160        O  0.56531792  0.03227608  0.06296727    -0.52800
C161        C  0.55610517  0.01137142  0.08321708     0.79800
O162        O  0.42417196  0.00206379  0.96430085    -0.58500
O163        O  0.38508767  0.02917732  0.98918874    -0.51600
C164        C  0.39510661  0.00810222  0.96939304     0.71800
O165        O  0.52689374  0.00429484  0.96421446    -0.73100
O166        O  0.56510513  0.03216519  0.98996213    -0.53700
C167        C  0.55576584  0.01098963  0.96996694     0.77800
O168        O  0.42322700  0.00683215  0.09255063    -0.58200
O169        O  0.38457220  0.03030588  0.06319307    -0.51400
C170        C  0.39427440  0.01146416  0.08522815     0.74400
Zr171      Zr  0.47506403  0.02226746  0.07381437     2.54700
O172        O  0.47499145  0.96500983  0.07172586    -0.78800
O173        O  0.47545298  0.02535483  0.13104654    -0.92200
Zr174      Zr  0.47518981  0.02083244  0.98183117     2.64700
O175        O  0.47850003  0.96412824  0.98963908    -0.97200
O176        O  0.47304160  0.01919247  0.92467651    -0.79200
O177        O  0.50659249  0.02177563  0.02785784    -0.82600
O178        O  0.44359468  0.02056600  0.02764721    -2.17300
O179        O  0.42218378  0.12839903  0.09132117    -0.66000
O180        O  0.38393031  0.10251218  0.06351201    -0.50600
C181        C  0.39332368  0.12221126  0.08491642     0.72800
O182        O  0.52528700  0.13177122  0.96304673    -0.58900
O183        O  0.56419972  0.10648482  0.99044225    -0.50900
C184        C  0.55433613  0.12664312  0.96959891     0.74600
O185        O  0.42172832  0.13021060  0.96324173    -0.70300
O186        O  0.38359104  0.10272679  0.98933847    -0.49000
C187        C  0.39286688  0.12351916  0.96895463     0.76000
O188        O  0.52632509  0.13248762  0.08863126    -0.65600
O189        O  0.56494313  0.10531617  0.06296950    -0.52800
C190        C  0.55530870  0.12622321  0.08294269     0.74400
Zr191      Zr  0.47429085  0.11428609  0.07262377     2.77500
O192        O  0.47194938  0.17144380  0.06910369    -0.96400
O193        O  0.47660747  0.11202067  0.12986389    -0.77200
Zr194      Zr  0.47385309  0.11369441  0.98048021     2.70100
O195        O  0.47301314  0.17080357  0.98476301    -0.78400
O196        O  0.47372298  0.11197438  0.92326656    -0.97500
Zr197      Zr  0.53773846  0.06870422  0.02659818     2.21500
Zr198      Zr  0.41131056  0.06674600  0.02634609     2.11100
O199        O  0.44259597  0.11381968  0.02650606    -2.46200
O200        O  0.50548623  0.11486474  0.02648694    -0.78200
O201        O  0.44325515  0.06794389  0.07299181    -0.70400
O202        O  0.50555383  0.06772435  0.98024014    -2.31400
O203        O  0.50616455  0.06861177  0.07343604    -2.27600
O204        O  0.44346713  0.06680615  0.98025060    -0.72200
H205        H  0.43073858  0.00195336  0.02796764     0.79800
H206        H  0.51843922  0.06775586  0.96158526     0.80900
H207        H  0.42928815  0.13209977  0.02640885     0.83100
H208        H  0.51930490  0.06893211  0.09189878     0.80700
H209        H  0.48424076  0.03841652  0.91783285     0.43800
H210        H  0.45591594  0.09803312  0.91776284     0.42700
H211        H  0.48866539  0.17570130  0.00131846     0.42400
H212        H  0.45139963  0.17612347  0.05922427     0.40300
H213        H  0.45869510  0.09851841  0.13599378     0.43500
H214        H  0.49540711  0.03600844  0.13648889     0.38300
H215        H  0.45297181  0.95901600  0.06725115     0.44400
H216        H  0.46561047  0.95977293  0.00844772     0.40800
H217        H  0.46967272  0.17852992  0.09116064     0.45700
H218        H  0.47843678  0.00334912  0.13811682     0.44400
H219        H  0.46638263  0.95494910  0.97198176     0.44600
H220        H  0.46681880  0.13323400  0.91667520     0.44900
C221        C  0.09488787  0.98289138  0.65940519     0.81600
N222        N  0.07730348  0.00080447  0.63938320    -0.76700
C223        C  0.04908979  0.98998803  0.62868202     0.84000
N224        N  0.03962066  0.96033345  0.63678021    -0.76700
C225        C  0.05743858  0.94262821  0.65690592     0.84100
N226        N  0.08465520  0.95424886  0.66820651    -0.78400
C227        C  0.85154042  0.98527734  0.65606354     0.81600
N228        N  0.87014033  0.00355102  0.63738437    -0.76700
C229        C  0.89976672  0.99383659  0.62990245     0.84000
N230        N  0.90979451  0.96498869  0.63987340    -0.76700
C231        C  0.89096210  0.94690625  0.65844635     0.84100
N232        N  0.86227040  0.95733276  0.66659523    -0.78400
C233        C  0.89514241  0.19124143  0.65842763     0.81600
N234        N  0.86700236  0.18097108  0.66862877    -0.76700
C235        C  0.85542142  0.15306122  0.65900173     0.84000
N236        N  0.87266323  0.13460451  0.63919084    -0.76700
C237        C  0.90179698  0.14412303  0.62962720     0.84100
N238        N  0.91257395  0.17297450  0.63872481    -0.78400
C239        C  0.06306511  0.19296740  0.65279503     0.81600
N240        N  0.09093399  0.18146883  0.66262510    -0.76700
C241        C  0.10050000  0.15246194  0.65417965     0.84000
N242        N  0.08138936  0.13404360  0.63598949    -0.76700
C243        C  0.05249507  0.14475210  0.62671923     0.84100
N244        N  0.04376574  0.17472454  0.63460544    -0.78400
C245        C  0.88883748  0.19143462  0.39469798     0.81600
N246        N  0.90764542  0.17308799  0.41324099    -0.76700
C247        C  0.89854305  0.14326770  0.42106298     0.84000
N248        N  0.86961176  0.13290689  0.41180346    -0.76700
C249        C  0.85100308  0.15147246  0.39329868     0.84100
N250        N  0.86094303  0.18029751  0.38470043    -0.78400
C251        C  0.85132019  0.98348837  0.39225792     0.81600
N252        N  0.86166446  0.95493579  0.38311001    -0.76700
C253        C  0.88943911  0.94367505  0.39351480     0.84000
N254        N  0.90771514  0.96163961  0.41291011    -0.76700
C255        C  0.89815607  0.99112697  0.42134133     0.84100
N256        N  0.86942747  0.00158835  0.41163002    -0.78400
C257        C  0.09420816  0.98438200  0.38928684     0.81600
N258        N  0.08437305  0.95547633  0.38077265    -0.76700
C259        C  0.05730440  0.94354432  0.39202592     0.84000
N260        N  0.03921998  0.96118526  0.41179031    -0.76700
C261        C  0.04823670  0.99103459  0.41966001     0.84100
N262        N  0.07635617  0.00216342  0.40906326    -0.78400
C263        C  0.05815998  0.18659025  0.38994682     0.81600
N264        N  0.08660828  0.17643832  0.38059771    -0.76700
C265        C  0.09782674  0.14839684  0.39037132     0.84000
N266        N  0.08001632  0.12978137  0.40955124    -0.76700
C267        C  0.05057479  0.13914756  0.41809891     0.84100
N268        N  0.04016989  0.16810561  0.40895674    -0.78400
O269        O  0.91158221  0.00560699  0.57760822    -0.73900
O270        O  0.93956745  0.03158965  0.61567942    -0.52800
C271        C  0.91837174  0.01162431  0.60645266     0.79800
O272        O  0.03705379  0.00348593  0.47229352    -0.58500
O273        O  0.00934356  0.02950358  0.43398452    -0.51600
C274        C  0.03020972  0.00925575  0.44332965     0.71800
O275        O  0.03621085  0.00165281  0.57623379    -0.73100
O276        O  0.01218405  0.03053783  0.61469749    -0.53700
C277        C  0.03111306  0.00861578  0.60519694     0.77800
O278        O  0.91076031  0.00383456  0.47361887    -0.58200
O279        O  0.93680400  0.03027291  0.43464795    -0.51400
C280        C  0.91657657  0.00969728  0.44450938     0.74400
Zr281      Zr  0.92805768  0.02189958  0.52532580     2.54700
O282        O  0.92909907  0.96461179  0.52513853    -0.78800
O283        O  0.87107683  0.02647867  0.52444462    -0.92200
Zr284      Zr  0.02005948  0.02033514  0.52441859     2.64700
O285        O  0.01615304  0.96321153  0.52310580    -0.97200
O286        O  0.07703572  0.02355973  0.52684593    -0.79200
O287        O  0.97451932  0.02104069  0.55641391    -0.82600
O288        O  0.97361188  0.02042503  0.49358679    -2.17300
O289        O  0.91193358  0.13152683  0.47320465    -0.66000
O290        O  0.93690672  0.10365452  0.43458290    -0.50600
C291        C  0.91713754  0.12480137  0.44421885     0.72800
O292        O  0.03841239  0.13202171  0.57478223    -0.58900
O293        O  0.01341423  0.10501581  0.61407740    -0.50900
C294        C  0.03325476  0.12601725  0.60398127     0.74600
O295        O  0.03961871  0.12715209  0.47082073    -0.70300
O296        O  0.01090762  0.10162709  0.43298030    -0.49000
C297        C  0.03259124  0.12113167  0.44196535     0.76000
O298        O  0.91328759  0.13185282  0.57695676    -0.65600
O299        O  0.93992632  0.10473256  0.61527161    -0.52800
C300        C  0.91956479  0.12553748  0.60594400     0.74400
Zr301      Zr  0.92972864  0.11422418  0.52486184     2.77500
O302        O  0.93473418  0.17130263  0.52582883    -0.96400
O303        O  0.87269784  0.11127768  0.52366979    -0.77200
Zr304      Zr  0.02167308  0.11261485  0.52341868     2.70100
O305        O  0.01882652  0.16975337  0.52017312    -0.78400
O306        O  0.07842947  0.10760692  0.52772816    -0.97500
Zr307      Zr  0.97599679  0.06785330  0.58792147     2.21500
Zr308      Zr  0.97378910  0.06672633  0.46127745     2.11100
O309        O  0.97513588  0.11355402  0.49265190    -2.46200
O310        O  0.97629294  0.11396021  0.55555186    -0.78200
O311        O  0.92799078  0.06789467  0.49372295    -0.70400
O312        O  0.02170238  0.06675409  0.55525599    -2.31400
O313        O  0.92906040  0.06824602  0.55649260    -2.27600
O314        O  0.02077766  0.06619261  0.49243774    -0.72200
H315        H  0.97321415  0.00172094  0.48075328     0.79800
H316        H  0.04045522  0.06657332  0.56809641     0.80900
H317        H  0.97533287  0.13192261  0.47935680     0.83100
H318        H  0.91077768  0.06865968  0.56974268     0.80700
H319        H  0.08428402  0.00190518  0.52236572     0.43800
H320        H  0.08413010  0.09184047  0.51161758     0.42700
H321        H  0.00907210  0.17638682  0.54020191     0.42400
H322        H  0.94579115  0.17678575  0.50612214     0.40300
H323        H  0.86799969  0.09336394  0.50955818     0.43500
H324        H  0.86562442  0.03718614  0.54435408     0.38300
H325        H  0.94130845  0.95875083  0.54412145     0.44400
H326        H  0.03754718  0.95570483  0.52832284     0.40800
H327        H  0.91307757  0.17916835  0.52266638     0.45700
H328        H  0.86343370  0.00465535  0.52722449     0.44400
H329        H  0.00339739  0.95766035  0.54173271     0.44600
H330        H  0.08674332  0.12775901  0.51954089     0.44900
C331        C  0.00324853  0.39470930  0.26269000    -0.09500
C332        C  0.97482981  0.40766592  0.25310622    -0.03400
C333        C  0.94614801  0.39706608  0.26432739    -0.09500
C334        C  0.94554617  0.37406051  0.28832476     0.11500
C335        C  0.97440998  0.36172471  0.29996160    -0.01300
C336        C  0.00343679  0.37162410  0.28665809     0.11300
C337        C  0.03155809  0.35828473  0.29762508    -0.11300
C338        C  0.03134073  0.33548133  0.32129493    -0.11300
C339        C  0.00297424  0.32505534  0.33446264     0.11300
C340        C  0.97416676  0.33840896  0.32385234    -0.01300
C341        C  0.91711484  0.36301231  0.30077013    -0.11400
C342        C  0.91687397  0.34013452  0.32437432    -0.11400
C343        C  0.94504998  0.32740750  0.33602586     0.11500
C344        C  0.94513265  0.30358774  0.35927147    -0.09500
C345        C  0.97370561  0.29188407  0.37011297    -0.03400
C346        C  0.00239360  0.30124906  0.35770183    -0.09500
H347        H  0.05392299  0.36565008  0.28808802     0.08700
H348        H  0.05357504  0.32601007  0.32929336     0.08700
H349        H  0.89489761  0.37224191  0.29243277     0.08900
H350        H  0.89445698  0.33244284  0.33353342     0.08900
H351        H  0.97482519  0.42405728  0.23345612     0.05300
H352        H  0.97342739  0.27204323  0.38623819     0.05300
C353        C  0.31146727  0.09428329  0.26852677    -0.09500
C354        C  0.32472586  0.06540801  0.26066851    -0.03400
C355        C  0.30949361  0.03725417  0.26720955    -0.09500
C356        C  0.28390290  0.03713971  0.28823506     0.11500
C357        C  0.27322779  0.06610717  0.30092573    -0.01300
C358        C  0.28627060  0.09498514  0.29016762     0.11300
C359        C  0.27365454  0.12349517  0.30101689    -0.11300
C360        C  0.24914341  0.12370341  0.32283058    -0.11300
C361        C  0.23632176  0.09540476  0.33412791     0.11300
C362        C  0.24805103  0.06628886  0.32262137    -0.01300
C363        C  0.26855456  0.00907409  0.29648422    -0.11400
C364        C  0.24367911  0.00922458  0.31783140    -0.11400
C365        C  0.23348352  0.03745463  0.33151446     0.11500
C366        C  0.20898679  0.03799448  0.35384181    -0.09500
C367        C  0.20029941  0.06643523  0.36722055    -0.03400
C368        C  0.21181305  0.09510372  0.35646786    -0.09500
H369        H  0.28317069  0.14576069  0.29310201     0.08700
H370        H  0.24046043  0.14614060  0.33111355     0.08700
H371        H  0.27615360  0.98678287  0.28684752     0.08900
H372        H  0.23278248  0.98705602  0.32402294     0.08900
H373        H  0.34343786  0.06496928  0.24338687     0.05300
H374        H  0.18053556  0.06652380  0.38332232     0.05300
C375        C  0.21032597  0.39705510  0.00061746    -0.09500
C376        C  0.20214631  0.40967490  0.02957803    -0.03400
C377        C  0.21112222  0.39583042  0.05784483    -0.09500
C378        C  0.23319855  0.37097392  0.05744333     0.11500
C379        C  0.24463076  0.35987017  0.02801128    -0.01300
C380        C  0.23237294  0.37224404  0.99940922     0.11300
C381        C  0.24216795  0.35936138  0.97062897    -0.11300
C382        C  0.26434831  0.33513507  0.96979316    -0.11300
C383        C  0.27733471  0.32305788  0.99772389     0.11300
C384        C  0.26707231  0.33526620  0.02717467    -0.01300
C385        C  0.24407579  0.35701370  0.08537333    -0.11400
C386        C  0.26640525  0.33296515  0.08458097    -0.11400
C387        C  0.27832446  0.32202268  0.05582004     0.11500
C388        C  0.30115167  0.29799518  0.05466164    -0.09500
C389        C  0.31246900  0.28807328  0.02574073    -0.03400
C390        C  0.30031291  0.29899811  0.99738935    -0.09500
H391        H  0.23303125  0.36836682  0.94857629     0.08700
H392        H  0.27163230  0.32616284  0.94713544     0.08700
H393        H  0.23573169  0.36505773  0.10801124     0.08900
H394        H  0.27459320  0.32317192  0.10666519     0.08900
H395        H  0.18398730  0.42759877  0.03011457     0.05300
H396        H  0.32882386  0.26845625  0.02530102     0.05300
C397        C  0.64390084  0.09685544  0.26173609    -0.09500
C398        C  0.63259194  0.06810330  0.25105351    -0.03400
C399        C  0.64454615  0.03951761  0.26142949    -0.09500
C400        C  0.66747314  0.03913820  0.28543748     0.11500
C401        C  0.67844500  0.06816864  0.29798729    -0.01300
C402        C  0.66710391  0.09725878  0.28568332     0.11300
C403        C  0.67942890  0.12559073  0.29739765    -0.11300
C404        C  0.70262951  0.12549724  0.32075712    -0.11300
C405        C  0.71416615  0.09707118  0.33314237     0.11300
C406        C  0.70193812  0.06807220  0.32170472    -0.01300
C407        C  0.67991732  0.01072755  0.29683912    -0.11400
C408        C  0.70303701  0.01063706  0.32015309    -0.11400
C409        C  0.71440543  0.03895228  0.33274075     0.11500
C410        C  0.73821408  0.03916979  0.35593337    -0.09500
C411        C  0.74827725  0.06776207  0.36813719    -0.03400
C412        C  0.73792228  0.09653533  0.35647364    -0.09500
H413        H  0.67106543  0.14799833  0.28858636     0.08700
H414        H  0.71143670  0.14783963  0.32923779     0.08700
H415        H  0.67171268  0.98837739  0.28779523     0.08900
H416        H  0.71194453  0.98822589  0.32840126     0.08900
H417        H  0.61636961  0.06797242  0.23126544     0.05300
H418        H  0.76786202  0.06765597  0.38457487     0.05300
C419        C  0.00233201  0.73037363  0.26888938    -0.09500
C420        C  0.97356313  0.71748635  0.25999115    -0.03400
C421        C  0.94526906  0.73154015  0.26804435    -0.09500
C422        C  0.94507824  0.75583370  0.29068413     0.11500
C423        C  0.97404507  0.76685794  0.30320319    -0.01300
C424        C  0.00291097  0.75475261  0.29158686     0.11300
C425        C  0.03130101  0.76771903  0.30241119    -0.11300
C426        C  0.03145046  0.79212343  0.32443772    -0.11300
C427        C  0.00320851  0.80436251  0.33622581     0.11300
C428        C  0.97416471  0.79173901  0.32542141    -0.01300
C429        C  0.91688530  0.76976795  0.30050731    -0.11400
C430        C  0.91696446  0.79410682  0.32255620    -0.11400
C431        C  0.94526337  0.80535636  0.33527825     0.11500
C432        C  0.94576576  0.83025936  0.35728841    -0.09500
C433        C  0.97432228  0.84040920  0.36936905    -0.03400
C434        C  0.00289929  0.82929045  0.35822709    -0.09500
H435        H  0.05355820  0.75884453  0.29398125     0.08700
H436        H  0.05382735  0.80134208  0.33232242     0.08700
H437        H  0.89457567  0.76166254  0.29130143     0.08900
H438        H  0.89471957  0.80407260  0.32969877     0.08900
H439        H  0.97320340  0.69991156  0.24146539     0.05300
H440        H  0.97434373  0.86059604  0.38504026     0.05300
C441        C  0.30643208  0.09136420  0.78901751    -0.09500
C442        C  0.31755946  0.06229958  0.79916003    -0.03400
C443        C  0.30438012  0.03403418  0.78953697    -0.09500
C444        C  0.28032186  0.03439753  0.76643855     0.11500
C445        C  0.27020696  0.06378434  0.75367926    -0.01300
C446        C  0.28288826  0.09247077  0.76542132     0.11300
C447        C  0.27155813  0.12120680  0.75351222    -0.11300
C448        C  0.24800957  0.12195464  0.73048050    -0.11300
C449        C  0.23513141  0.09398276  0.71854378     0.11300
C450        C  0.24630068  0.06455322  0.73029115    -0.01300
C451        C  0.26602183  0.00653211  0.75597486    -0.11400
C452        C  0.24246106  0.00728916  0.73299550    -0.11400
C453        C  0.23248097  0.03593018  0.71977310     0.11500
C454        C  0.20879531  0.03699845  0.69641224    -0.09500
C455        C  0.19993120  0.06580191  0.68379545    -0.03400
C456        C  0.21126349  0.09424601  0.69518664    -0.09500
H457        H  0.28106351  0.14330729  0.76186767     0.08700
H458        H  0.24006594  0.14457491  0.72182155     0.08700
H459        H  0.27324197  0.98395378  0.76535169     0.08900
H460        H  0.23225283  0.98524620  0.72534461     0.08900
H461        H  0.33441254  0.06168057  0.81839743     0.05300
H462        H  0.18046073  0.06624419  0.66720805     0.05300
C463        C  0.95132745  0.39503935  0.79313360    -0.09500
C464        C  0.97977828  0.40723989  0.80331423    -0.03400
C465        C  0.00837387  0.39468917  0.79396209    -0.09500
C466        C  0.00904192  0.37179993  0.76990323     0.11500
C467        C  0.98018520  0.36122520  0.75671507    -0.01300
C468        C  0.95110487  0.37191865  0.76925486     0.11300
C469        C  0.92292673  0.35920187  0.75772344    -0.11300
C470        C  0.92314111  0.33681361  0.73368389    -0.11300
C471        C  0.95152189  0.32671850  0.72032714     0.11300
C472        C  0.98038021  0.33880018  0.73207300    -0.01300
C473        C  0.03741877  0.35925157  0.75877911    -0.11400
C474        C  0.03760305  0.33727948  0.73429195    -0.11400
C475        C  0.00940435  0.32712089  0.72037280     0.11500
C476        C  0.00908357  0.30540112  0.69512039    -0.09500
C477        C  0.98049007  0.29666913  0.68184667    -0.03400
C478        C  0.95202793  0.30461779  0.69556654    -0.09500
H479        H  0.90055943  0.36686342  0.76699238     0.08700
H480        H  0.90091208  0.32785126  0.72510608     0.08700
H481        H  0.05963959  0.36687160  0.76860066     0.08900
H482        H  0.05996134  0.32860031  0.72593439     0.08900
H483        H  0.97956851  0.42386520  0.82272653     0.05300
H484        H  0.98045967  0.27875675  0.66363165     0.05300
C485        C  0.20484927  0.74183624  0.05656345    -0.09500
C486        C  0.19638940  0.72772653  0.02841471    -0.03400
C487        C  0.20802078  0.73769689  0.99955084    -0.09500
C488        C  0.23197441  0.76080018  0.99883659     0.11500
C489        C  0.24282878  0.77393988  0.02769968    -0.01300
C490        C  0.22844824  0.76520565  0.05665318     0.11300
C491        C  0.23790104  0.78007711  0.08458938    -0.11300
C492        C  0.26178942  0.80261138  0.08439448    -0.11300
C493        C  0.27682120  0.81104277  0.05623124     0.11300
C494        C  0.26702138  0.79691133  0.02748030    -0.01300
C495        C  0.24515107  0.77121817  0.97039547    -0.11400
C496        C  0.26890837  0.79398062  0.97016940    -0.11400
C497        C  0.28031258  0.80691579  0.99838137     0.11500
C498        C  0.30462383  0.82972907  0.99863194    -0.09500
C499        C  0.31569844  0.84078679  0.02735241    -0.03400
C500        C  0.30134678  0.83344859  0.05572223    -0.09500
H501        H  0.22713836  0.77397994  0.10682615     0.08700
H502        H  0.26874223  0.81317878  0.10651047     0.08700
H503        H  0.23730512  0.76153611  0.94816859     0.08900
H504        H  0.27865526  0.80115777  0.94778415     0.08900
H505        H  0.17697112  0.71113710  0.02869425     0.05300
H506        H  0.33331201  0.85927404  0.02727516     0.05300
C507        C  0.73970223  0.39914692  0.05419277    -0.09500
C508        C  0.75031003  0.41046346  0.02545958    -0.03400
C509        C  0.73998836  0.39853055  0.99682070    -0.09500
C510        C  0.71598128  0.37553045  0.99648783     0.11500
C511        C  0.70372554  0.36439161  0.02559642    -0.01300
C512        C  0.71611349  0.37571856  0.05462932     0.11300
C513        C  0.70487323  0.36314723  0.08303355    -0.11300
C514        C  0.68204383  0.33955809  0.08310340    -0.11300
C515        C  0.66929849  0.32827065  0.05479850     0.11300
C516        C  0.68004069  0.34091030  0.02569767    -0.01300
C517        C  0.70409690  0.36330391  0.96815981    -0.11400
C518        C  0.68047221  0.34045746  0.96826036    -0.11400
C519        C  0.66820615  0.32896506  0.99670027     0.11500
C520        C  0.64449650  0.30563648  0.99726190    -0.09500
C521        C  0.63315298  0.29510007  0.02606639    -0.03400
C522        C  0.64606286  0.30454365  0.05456235    -0.09500
H523        H  0.71372535  0.37153902  0.10540605     0.08700
H524        H  0.67403176  0.33046172  0.10549450     0.08700
H525        H  0.71286064  0.37161295  0.94574847     0.08900
H526        H  0.67172590  0.33186884  0.94591622     0.08900
H527        H  0.76998245  0.42673335  0.02543566     0.05300
H528        H  0.61639922  0.27581263  0.02623278     0.05300
C529        C  0.00101770  0.74071810  0.79455023    -0.09500
C530        C  0.97247974  0.73050455  0.80647865    -0.03400
C531        C  0.94399750  0.74313722  0.79686695    -0.09500
C532        C  0.94350744  0.76588142  0.77253307     0.11500
C533        C  0.97239261  0.77545259  0.75866058    -0.01300
C534        C  0.00139965  0.76348701  0.77032345     0.11300
C535        C  0.02969997  0.77465922  0.75764608    -0.11300
C536        C  0.02965102  0.79693054  0.73344732    -0.11300
C537        C  0.00130343  0.80855144  0.72110691     0.11300
C538        C  0.97235875  0.79786997  0.73392400    -0.01300
C539        C  0.91531489  0.77933618  0.76182756    -0.11400
C540        C  0.91531529  0.80157886  0.73754028    -0.11400
C541        C  0.94348527  0.81087140  0.72315224     0.11500
C542        C  0.94384671  0.83301280  0.69829896    -0.09500
C543        C  0.97218904  0.84062928  0.68409423    -0.03400
C544        C  0.00088261  0.83078817  0.69632585    -0.09500
H545        H  0.05204261  0.76596355  0.76621148     0.08700
H546        H  0.05194846  0.80469898  0.72405869     0.08700
H547        H  0.89308478  0.77247644  0.77203336     0.08900
H548        H  0.89307547  0.81118171  0.72970847     0.08900
H549        H  0.97262169  0.71430358  0.82630383     0.05300
H550        H  0.97213525  0.85882939  0.66611250     0.05300
C551        C  0.65022737  0.04110888  0.79404937    -0.09500
C552        C  0.63768418  0.06956683  0.80381565    -0.03400
C553        C  0.64964916  0.09832272  0.79385114    -0.09500
C554        C  0.67300078  0.09902739  0.77031291     0.11500
C555        C  0.68375685  0.07014220  0.75735708    -0.01300
C556        C  0.67302748  0.04094428  0.76990011     0.11300
C557        C  0.68535190  0.01274110  0.75804557    -0.11300
C558        C  0.70725740  0.01304161  0.73359256    -0.11300
C559        C  0.71787123  0.04157293  0.72063970     0.11300
C560        C  0.70640817  0.07045950  0.73296485    -0.01300
C561        C  0.68594304  0.12749214  0.75958591    -0.11400
C562        C  0.70873354  0.12776189  0.73598826    -0.11400
C563        C  0.71890896  0.09961606  0.72211862     0.11500
C564        C  0.74134238  0.09952693  0.69763817    -0.09500
C565        C  0.74924519  0.07117980  0.68354846    -0.03400
C566        C  0.73993444  0.04231193  0.69582085    -0.09500
H567        H  0.67759562  0.99028732  0.76725304     0.08700
H568        H  0.71570465  0.99077484  0.72464078     0.08700
H569        H  0.67827063  0.14973879  0.76925444     0.08900
H570        H  0.71794230  0.15018338  0.72815451     0.08900
H571        H  0.62091490  0.06934329  0.82304383     0.05300
H572        H  0.76734693  0.07142039  0.66561766     0.05300
C573        C  0.74042211  0.73967399  0.05357187    -0.09500
C574        C  0.74685018  0.72429713  0.02561976    -0.03400
C575        C  0.73375178  0.73359419  0.99698794    -0.09500
C576        C  0.71023276  0.75734742  0.99693085     0.11500
C577        C  0.70101792  0.77111185  0.02605612    -0.01300
C578        C  0.71677582  0.76275248  0.05441154     0.11300
C579        C  0.70883554  0.77784036  0.08263022    -0.11300
C580        C  0.68519997  0.80050730  0.08331356    -0.11300
C581        C  0.66911758  0.80901838  0.05571455     0.11300
C582        C  0.67740561  0.79464310  0.02665432    -0.01300
C583        C  0.69611892  0.76809868  0.96894845    -0.11400
C584        C  0.67336194  0.79192269  0.96946631    -0.11400
C585        C  0.66350361  0.80524220  0.99803210     0.11500
C586        C  0.64019216  0.82905219  0.99912257    -0.09500
C587        C  0.62993211  0.83975090  0.02825256    -0.03400
C588        C  0.64511434  0.83188709  0.05610858    -0.09500
H589        H  0.72060612  0.77180240  0.10444403     0.08700
H590        H  0.67941263  0.81125627  0.10563277     0.08700
H591        H  0.70264295  0.75806756  0.94650358     0.08900
H592        H  0.66305805  0.79955043  0.94741154     0.08900
H593        H  0.76615264  0.70759130  0.02564928     0.05300
H594        H  0.61287166  0.85873182  0.02890974     0.05300
C595        C  0.04277746  0.24089927  0.40518104     0.25000
C596        C  0.04885324  0.21878862  0.38157159    -0.23200
C597        C  0.04855843  0.22836657  0.34992439     0.19900
C598        C  0.03853377  0.25862855  0.34179695     0.24900
C599        C  0.02875411  0.27967230  0.36528979    -0.23100
C600        C  0.03370308  0.27146823  0.39711706     0.19800
F601        F  0.02534785  0.29168359  0.42033305    -0.13100
F602        F  0.04463894  0.23256670  0.43598867    -0.15400
F603        F  0.03474126  0.26591465  0.31091292    -0.15400
F604        F  0.05548407  0.20758551  0.32674296    -0.13100
C605        C  0.15309131  0.13498363  0.40468510     0.25000
C606        C  0.13013136  0.14006957  0.38152883    -0.23200
C607        C  0.13888154  0.13990926  0.34966619     0.19900
C608        C  0.16921261  0.13091103  0.34098459     0.24900
C609        C  0.19117374  0.12202011  0.36409942    -0.23100
C610        C  0.18370075  0.12690385  0.39601964     0.19800
F611        F  0.20464685  0.11884692  0.41879269    -0.13100
F612        F  0.14557867  0.13670951  0.43564396    -0.15400
F613        F  0.17566425  0.12654698  0.31003184    -0.15400
F614        F  0.11728867  0.14588070  0.32685090    -0.13100
C615        C  0.18054754  0.00378138  0.39131997     0.25000
C616        C  0.18621096  0.01235086  0.35979503    -0.23200
C617        C  0.16210270  0.00814387  0.33748537     0.19900
C618        C  0.13204955  0.99895915  0.34710856     0.24900
C619        C  0.12564450  0.99425890  0.37916578    -0.23100
C620        C  0.15033788  0.99533193  0.40099970     0.19800
F621        F  0.14496565  0.98897719  0.43182934    -0.13100
F622        F  0.20335904  0.00765260  0.41335495    -0.15400
F623        F  0.10869323  0.99663035  0.32541382    -0.15400
F624        F  0.16663220  0.01672028  0.30704960    -0.13100
C625        C  0.03839651  0.87224705  0.34251440     0.25000
C626        C  0.02968925  0.85024763  0.36561338    -0.23200
C627        C  0.03529247  0.85749941  0.39749726     0.19900
C628        C  0.04430688  0.88792557  0.40626321     0.24900
C629        C  0.04900482  0.91107138  0.38320760    -0.23100
C630        C  0.04815238  0.90242051  0.35128271     0.19800
F631        F  0.05443077  0.92394796  0.32851291    -0.13100
F632        F  0.03334442  0.86601663  0.31158124    -0.15400
F633        F  0.04762682  0.89499234  0.43722603    -0.15400
F634        F  0.02735457  0.83650248  0.42022571    -0.13100
C635        C  0.79644915  0.99881119  0.40526498     0.25000
C636        C  0.81954562  0.99307023  0.38259041    -0.23200
C637        C  0.81122013  0.99345532  0.35055252     0.19900
C638        C  0.78116287  0.00305955  0.34124194     0.24900
C639        C  0.75909215  0.01236795  0.36391295    -0.23100
C640        C  0.76607664  0.00725628  0.39596526     0.19800
F641        F  0.74474615  0.01503326  0.41829698    -0.13100
F642        F  0.80354963  0.99711900  0.43638383    -0.15400
F643        F  0.77489384  0.00676039  0.31011531    -0.15400
F644        F  0.83292457  0.98680341  0.32821200    -0.13100
C645        C  0.90120685  0.88717417  0.40530785     0.25000
C646        C  0.89884587  0.91189500  0.38351825    -0.23200
C647        C  0.90336613  0.90562277  0.35142465     0.19900
C648        C  0.91372297  0.87597915  0.34165034     0.24900
C649        C  0.91949093  0.85209440  0.36385906    -0.23100
C650        C  0.91122937  0.85736644  0.39550329     0.19800
F651        F  0.91662426  0.83472121  0.41742524    -0.13100
F652        F  0.89467036  0.89213751  0.43613945    -0.15400
F653        F  0.92204603  0.87189467  0.31112126    -0.15400
F654        F  0.89995549  0.92893979  0.32980547    -0.13100
C655        C  0.90526317  0.24588869  0.40921032     0.25000
C656        C  0.89722187  0.22386552  0.38606529    -0.23200
C657        C  0.89505656  0.23362565  0.35449047     0.19900
C658        C  0.90532819  0.26357937  0.34566510     0.24900
C659        C  0.91766275  0.28417527  0.36840159    -0.23100
C660        C  0.91439542  0.27627498  0.40049971     0.19800
F661        F  0.92514292  0.29620814  0.42302810    -0.13100
F662        F  0.90538724  0.23762101  0.44007740    -0.15400
F663        F  0.90729484  0.27064428  0.31457425    -0.15400
F664        F  0.88566801  0.21318744  0.33180389    -0.13100
C665        C  0.81087558  0.14235318  0.35172299     0.25000
C666        C  0.81922805  0.14210143  0.38372947    -0.23200
C667        C  0.79616088  0.13618846  0.40637402     0.19900
C668        C  0.76579529  0.12779964  0.39699357     0.24900
C669        C  0.75879274  0.12316885  0.36484175    -0.23100
C670        C  0.78094606  0.13262146  0.34228253     0.19800
F671        F  0.77506560  0.12853169  0.31114466    -0.13100
F672        F  0.83247510  0.14979123  0.32949676    -0.15400
F673        F  0.74460443  0.11945237  0.41928450    -0.15400
F674        F  0.80328676  0.13770866  0.43749813    -0.13100
C675        C  0.05070218  0.22967443  0.69639365     0.25000
C676        C  0.05399609  0.22453029  0.66393060    -0.23200
C677        C  0.05117648  0.25011238  0.64318978     0.19900
C678        C  0.04219360  0.27973181  0.65456919     0.24900
C679        C  0.03513546  0.28388549  0.68672303    -0.23100
C680        C  0.04136594  0.25906895  0.70772482     0.19800
F681        F  0.03399815  0.26190416  0.73864798    -0.13100
F682        F  0.05403739  0.20541766  0.71695891    -0.15400
F683        F  0.03596953  0.30317922  0.63372327    -0.15400
F684        F  0.05587606  0.24615488  0.61187795    -0.13100
C685        C  0.15558583  0.13544530  0.64306069     0.25000
C686        C  0.13189228  0.14214077  0.66483283    -0.23200
C687        C  0.13929337  0.14204649  0.69712807     0.19900
C688        C  0.16877861  0.13171767  0.70760875     0.24900
C689        C  0.19143811  0.12155009  0.68591463    -0.23100
C690        C  0.18538297  0.12599715  0.65349467     0.19800
F691        F  0.20673461  0.11630234  0.63194364    -0.13100
F692        F  0.14959019  0.13714804  0.61171588    -0.15400
F693        F  0.17363360  0.12768390  0.73894279    -0.15400
F694        F  0.11712728  0.14974767  0.71865865    -0.13100
C695        C  0.91079744  0.22838365  0.70066134     0.25000
C696        C  0.90560800  0.22253426  0.66857868    -0.23200
C697        C  0.90777447  0.24737905  0.64696056     0.19900
C698        C  0.91786501  0.27708106  0.65694477     0.24900
C699        C  0.92652045  0.28203548  0.68858289    -0.23100
C700        C  0.92137096  0.25786426  0.71060619     0.19800
F701        F  0.93035692  0.26154453  0.74106692    -0.13100
F702        F  0.90769177  0.20485775  0.72207850    -0.15400
F703        F  0.92276935  0.29998999  0.63521336    -0.15400
F704        F  0.90085160  0.24264350  0.61613100    -0.13100
C705        C  0.79889170  0.14163139  0.64810970     0.25000
C706        C  0.82372969  0.14417109  0.66966462    -0.23200
C707        C  0.81748182  0.14100791  0.70197868     0.19900
C708        C  0.78776961  0.13135158  0.71223480     0.24900
C709        C  0.76367398  0.12536287  0.69031798    -0.23100
C710        C  0.76894314  0.13282806  0.65840004     0.19800
F711        F  0.74618668  0.12719910  0.63668809    -0.13100
F712        F  0.80384521  0.14688183  0.61701136    -0.15400
F713        F  0.78374128  0.12407122  0.74307812    -0.15400
F714        F  0.84078520  0.14518184  0.72345192    -0.13100
C715        C  0.90974612  0.86025466  0.65946200     0.25000
C716        C  0.91846662  0.85574397  0.69119111    -0.23200
C717        C  0.91437788  0.88066575  0.71252073     0.19900
C718        C  0.90513842  0.91033950  0.70172454     0.24900
C719        C  0.90042255  0.91562718  0.66947280    -0.23100
C720        C  0.90142809  0.89021128  0.64856134     0.19800
F721        F  0.89521887  0.89463695  0.61751196    -0.13100
F722        F  0.91315142  0.83650865  0.63843365    -0.15400
F723        F  0.90280655  0.93448747  0.72246032    -0.15400
F724        F  0.92318854  0.87734821  0.74307762    -0.13100
C725        C  0.81289540  0.99566771  0.69830992     0.25000
C726        C  0.82003914  0.99518153  0.66606245    -0.23200
C727        C  0.79639184  0.00195462  0.64406180     0.19900
C728        C  0.76663044  0.01132035  0.65432333     0.24900
C729        C  0.76081921  0.01598490  0.68667012    -0.23100
C730        C  0.78367735  0.00635220  0.70858489     0.19800
F731        F  0.77929990  0.01110601  0.73984363    -0.13100
F732        F  0.83518513  0.98818137  0.71998247    -0.15400
F733        F  0.74492072  0.02042392  0.63267893    -0.15400
F734        F  0.80237028  0.00045536  0.61275061    -0.13100
C735        C  0.18027104  0.00498028  0.65684132     0.25000
C736        C  0.18662958  0.01125637  0.68884297    -0.23200
C737        C  0.16354106  0.00421798  0.71133933     0.19900
C738        C  0.13354205  0.99485114  0.70173690     0.24900
C739        C  0.12633819  0.99242212  0.66956897    -0.23100
C740        C  0.15018362  0.99596098  0.64730101     0.19800
F741        F  0.14402560  0.99146658  0.61625824    -0.13100
F742        F  0.20196982  0.01180474  0.63453114    -0.15400
F743        F  0.11091387  0.99032327  0.72370810    -0.15400
F744        F  0.16879861  0.01029527  0.74226212    -0.13100
C745        C  0.03737342  0.87399403  0.70939839     0.25000
C746        C  0.02755181  0.85134358  0.68739763    -0.23200
C747        C  0.03259509  0.85722863  0.65512873     0.19900
C748        C  0.04171587  0.88719428  0.64492986     0.24900
C749        C  0.04823928  0.91081167  0.66696960    -0.23100
C750        C  0.04830228  0.90325710  0.69919965     0.19800
F751        F  0.05659109  0.92513666  0.72095400    -0.13100
F752        F  0.03249098  0.86945316  0.74063088    -0.15400
F753        F  0.04342862  0.89335669  0.61363686    -0.15400
F754        F  0.02427479  0.83531561  0.63344798    -0.13100
C755        C  0.35893181  0.13401022  0.20739682     0.25000
C756        C  0.33572216  0.13914369  0.18450070    -0.23200
C757        C  0.30396941  0.13769954  0.19318413     0.19900
C758        C  0.29549326  0.12746350  0.22327252     0.24900
C759        C  0.31873742  0.11967468  0.24559603    -0.23100
C760        C  0.35046926  0.12537808  0.23802590     0.19800
F761        F  0.37340677  0.11813802  0.25908622    -0.13100
F762        F  0.38977299  0.13648828  0.19987710    -0.15400
F763        F  0.26477728  0.12135766  0.22913691    -0.15400
F764        F  0.28110739  0.14387787  0.17170166    -0.13100
C765        C  0.35272219  0.24267330  0.09728640     0.25000
C766        C  0.33113189  0.21846452  0.10309597    -0.23200
C767        C  0.29883413  0.22486505  0.10127124     0.19900
C768        C  0.28829972  0.25392581  0.09001086     0.24900
C769        C  0.30998140  0.27715808  0.08109369    -0.23100
C770        C  0.34217318  0.27205713  0.08684661     0.19800
F771        F  0.36353249  0.29411393  0.07815094    -0.13100
F772        F  0.38399336  0.23754566  0.10074525    -0.15400
F773        F  0.25724550  0.25780212  0.08382801    -0.15400
F774        F  0.27754259  0.20207489  0.10797721    -0.13100
C775        C  0.30342410  0.00154154  0.18836648     0.25000
C776        C  0.33484931  0.99333183  0.18323432    -0.23200
C777        C  0.35579484  0.99215499  0.20873985     0.19900
C778        C  0.34597929  0.00173577  0.23864612     0.24900
C779        C  0.31513655  0.01274460  0.24323789    -0.23100
C780        C  0.29359727  0.01116293  0.21813058     0.19800
F781        F  0.26410642  0.02279391  0.22143500    -0.13100
F782        F  0.28276048  0.00230416  0.16397869    -0.15400
F783        F  0.36737355  0.00367252  0.26231539    -0.15400
F784        F  0.38592543  0.98276265  0.20443748    -0.13100
C785        C  0.35193876  0.88993496  0.09811149     0.25000
C786        C  0.33092707  0.91508683  0.10124296    -0.23200
C787        C  0.29859869  0.90961492  0.09758715     0.19900
C788        C  0.28777064  0.88037778  0.08703741     0.24900
C789        C  0.30906716  0.85580089  0.08131148    -0.23100
C790        C  0.34098292  0.86025561  0.08904216     0.19800
F791        F  0.36206619  0.83698131  0.08348933    -0.13100
F792        F  0.38313251  0.89433331  0.10301757    -0.15400
F793        F  0.25712674  0.87732424  0.07868340    -0.15400
F794        F  0.27771227  0.93325157  0.10225554    -0.13100
C795        C  0.35607691  0.99141144  0.84471796     0.25000
C796        C  0.33554663  0.98914203  0.87035740    -0.23200
C797        C  0.30314391  0.99240363  0.86514176     0.19900
C798        C  0.29166650  0.00136598  0.83557174     0.24900
C799        C  0.31246681  0.00736278  0.81068859    -0.23100
C800        C  0.34455445  0.99998651  0.81493055     0.19800
F801        F  0.36522791  0.00538239  0.79128488    -0.13100
F802        F  0.38729307  0.98628660  0.84872603    -0.15400
F803        F  0.26073324  0.00839243  0.83246779    -0.15400
F804        F  0.28274453  0.98893445  0.88936743    -0.13100
C805        C  0.30430951  0.90113468  0.94932116     0.25000
C806        C  0.33652797  0.90844179  0.95019491    -0.23200
C807        C  0.35802290  0.88462021  0.95777240     0.19900
C808        C  0.34726195  0.85502505  0.96766314     0.24900
C809        C  0.31479610  0.84932168  0.97144898    -0.23100
C810        C  0.29349955  0.87191996  0.96006352     0.19800
F811        F  0.26212203  0.86735955  0.96317619    -0.13100
F812        F  0.28307372  0.92320995  0.94026790    -0.15400
F813        F  0.36845749  0.83347802  0.97799522    -0.15400
F814        F  0.38934771  0.89026354  0.95639193    -0.13100
C815        C  0.29729780  0.22627047  0.95102874     0.25000
C816        C  0.32958452  0.21960411  0.94986741    -0.23200
C817        C  0.35119491  0.24398016  0.95458105     0.19900
C818        C  0.34079267  0.27365270  0.96422848     0.24900
C819        C  0.30862846  0.27896920  0.97013165    -0.23100
C820        C  0.28686038  0.25574629  0.96123422     0.19800
F821        F  0.25575951  0.26006964  0.96655687    -0.13100
F822        F  0.27590637  0.20348780  0.94450827    -0.15400
F823        F  0.36238293  0.29570298  0.97238056    -0.15400
F824        F  0.38237908  0.23874335  0.95070181    -0.13100
C825        C  0.35678531  0.13105006  0.84776439     0.25000
C826        C  0.33390698  0.13979785  0.86963244    -0.23200
C827        C  0.30224679  0.14099169  0.86020631     0.19900
C828        C  0.29318334  0.12982411  0.83061410     0.24900
C829        C  0.31577975  0.11787054  0.80977604    -0.23100
C830        C  0.34787049  0.12097802  0.81772826     0.19800
F831        F  0.37023572  0.10943378  0.79820724    -0.13100
F832        F  0.38763408  0.13112161  0.85588914    -0.15400
F833        F  0.26210017  0.12679990  0.82414351    -0.15400
F834        F  0.27975105  0.15033912  0.88073011    -0.13100
C835        C  0.60726236  0.27771060  0.08869308     0.25000
C836        C  0.63900877  0.28282052  0.08092353    -0.23200
C837        C  0.66081748  0.25867319  0.08682007     0.19900
C838        C  0.65051353  0.22884274  0.09622282     0.24900
C839        C  0.61829791  0.22274744  0.09964282    -0.23100
C840        C  0.59689915  0.24767097  0.09735346     0.19800
F841        F  0.56589576  0.24266678  0.10268767    -0.13100
F842        F  0.58581008  0.30086673  0.08402918    -0.15400
F843        F  0.67177759  0.20532073  0.09991333    -0.15400
F844        F  0.69156813  0.26283806  0.07963281    -0.13100
C845        C  0.59247240  0.13711390  0.20476813     0.25000
C846        C  0.61471537  0.14448469  0.18167518    -0.23200
C847        C  0.64669739  0.14528758  0.18992880     0.19900
C848        C  0.65663787  0.13474563  0.21949989     0.24900
C849        C  0.63462625  0.12382077  0.24150060    -0.23100
C850        C  0.60235744  0.12778928  0.23483362     0.19800
F851        F  0.58057071  0.11798938  0.25593862    -0.13100
F852        F  0.56131951  0.13815078  0.19799929    -0.15400
F853        F  0.68786085  0.13141555  0.22501864    -0.15400
F854        F  0.66855722  0.15396311  0.16841440    -0.13100
C855        C  0.59198328  0.24998738  0.95716209     0.25000
C856        C  0.61357497  0.22590548  0.95093121    -0.23200
C857        C  0.64582408  0.23305280  0.95056069     0.19900
C858        C  0.65654089  0.26242222  0.96068237     0.24900
C859        C  0.63506900  0.28546133  0.97043153    -0.23100
C860        C  0.60271276  0.27993440  0.96583035     0.19800
F861        F  0.58154344  0.30215635  0.97444495    -0.13100
F862        F  0.56065765  0.24433281  0.95570469    -0.15400
F863        F  0.68783045  0.26671251  0.96508812    -0.15400
F864        F  0.66714628  0.21067225  0.94274288    -0.13100
C865        C  0.65014761  0.14247813  0.86801320     0.25000
C866        C  0.61761440  0.14401743  0.87324405    -0.23200
C867        C  0.59697357  0.13981295  0.84785298     0.19900
C868        C  0.60857451  0.13097938  0.81839974     0.24900
C869        C  0.64082287  0.12487390  0.81442628    -0.23100
C870        C  0.66170128  0.13265869  0.83887429     0.19800
F871        F  0.69289409  0.12688171  0.83584759    -0.13100
F872        F  0.67065106  0.14849637  0.89179111    -0.14800
F873        F  0.58802423  0.12401820  0.79493910    -0.15400
F874        F  0.56559409  0.14351312  0.85178317    -0.13100
C875        C  0.64514781  0.90179348  0.95200460     0.25000
C876        C  0.61347074  0.91113647  0.95252081    -0.23200
C877        C  0.59043959  0.88881188  0.96013441     0.19900
C878        C  0.59917659  0.85835133  0.96936481     0.24900
C879        C  0.63117443  0.85023301  0.97270379    -0.23100
C880        C  0.65393860  0.87163438  0.96197154     0.19800
F881        F  0.68494996  0.86489272  0.96502446    -0.13100
F882        F  0.66789731  0.92281256  0.94436123    -0.15400
F883        F  0.57665950  0.83824974  0.97969188    -0.15400
F884        F  0.55958625  0.89676223  0.95964133    -0.13100
C885        C  0.60045619  0.99555873  0.84880469     0.25000
C886        C  0.62073595  0.99428529  0.87484699    -0.23200
C887        C  0.65284225  0.00024297  0.87053371     0.19900
C888        C  0.66399565  0.01046275  0.84127973     0.24900
C889        C  0.64319570  0.01478015  0.81584021    -0.23100
C890        C  0.61162257  0.00553334  0.81943766     0.19800
F891        F  0.59088578  0.00993883  0.79551098    -0.13100
F892        F  0.56962021  0.98826351  0.85213582    -0.15400
F893        F  0.69422406  0.02031494  0.83898760    -0.15400
F894        F  0.67299111  0.99839846  0.89528653    -0.13100
C895        C  0.64928536  0.99528918  0.18781061     0.25000
C896        C  0.61716283  0.99347364  0.18054600    -0.23200
C897        C  0.59496811  0.99777201  0.20438447     0.19900
C898        C  0.60473978  0.00682893  0.23446936     0.24900
C899        C  0.63674031  0.01279207  0.24060179    -0.23100
C900        C  0.65906029  0.00465644  0.21775559     0.19800
F901        F  0.69007502  0.00990443  0.22300967    -0.13100
F902        F  0.67111246  0.99049443  0.16510235    -0.15400
F903        F  0.58276640  0.01441466  0.25623117    -0.15400
F904        F  0.56386719  0.99436996  0.19820695    -0.13100
C905        C  0.65112452  0.90949580  0.09375467     0.25000
C906        C  0.61919003  0.91501295  0.09947835    -0.23200
C907        C  0.59827816  0.88958262  0.10019083     0.19900
C908        C  0.60858895  0.85946776  0.09193432     0.24900
C909        C  0.63966860  0.85479242  0.08168232    -0.23100
C910        C  0.66125960  0.87967855  0.08442430     0.19800
F911        F  0.69120412  0.87613272  0.07419923    -0.13100
F912        F  0.67215862  0.93343776  0.09553726    -0.15400
F913        F  0.58740929  0.83567444  0.09008069    -0.15400
F914        F  0.56781718  0.89408318  0.10831398    -0.13100
C915        C  0.03852703  0.38069507  0.21879653     0.25000
C916        C  0.02988684  0.40275218  0.24180620    -0.23200
C917        C  0.03549709  0.43492089  0.23596644     0.19900
C918        C  0.04416780  0.44512868  0.20593110     0.24900
C919        C  0.04941781  0.42322487  0.18192358    -0.23100
C920        C  0.04847082  0.39089885  0.18909758     0.19800
F921        F  0.05475852  0.36921461  0.16655820    -0.13100
F922        F  0.03361368  0.34950379  0.22369653    -0.15400
F923        F  0.04639943  0.47643141  0.20000751    -0.15400
F924        F  0.02769139  0.45664900  0.25797178    -0.13100
C925        C  0.13645554  0.39241760  0.10067966     0.25000
C926        C  0.12994989  0.42477782  0.10259804    -0.23200
C927        C  0.15454006  0.44638935  0.09891789     0.19900
C928        C  0.18459364  0.43585168  0.09077298     0.24900
C929        C  0.18995589  0.40371911  0.08437030    -0.23100
C930        C  0.16618613  0.38193492  0.09156459     0.19800
F931        F  0.17042290  0.35082597  0.08577353    -0.13100
F932        F  0.11326830  0.37100653  0.10536525    -0.15400
F933        F  0.20724411  0.45737062  0.08431138    -0.15400
F934        F  0.14925489  0.47769030  0.10228421    -0.13100
C935        C  0.15053081  0.44627028  0.96138220     0.25000
C936        C  0.12677500  0.42371948  0.95807446    -0.23200
C937        C  0.13442169  0.39163538  0.95977478     0.19900
C938        C  0.16455783  0.38225710  0.96864074     0.24900
C939        C  0.18768191  0.40488323  0.97533140    -0.23100
C940        C  0.18100157  0.43689676  0.96942716     0.19800
F941        F  0.20283680  0.45926768  0.97590144    -0.13100
F942        F  0.14405272  0.47730368  0.95742152    -0.15400
F943        F  0.16981444  0.35137304  0.97493887    -0.15400
F944        F  0.11206063  0.36937896  0.95490743    -0.13100
C945        C  0.03925147  0.37933025  0.84026798     0.25000
C946        C  0.03415135  0.40156798  0.81625280    -0.23200
C947        C  0.04069508  0.43348926  0.82241086     0.19900
C948        C  0.04678111  0.44349022  0.85316161     0.24900
C949        C  0.04799729  0.42155367  0.87775477    -0.23100
C950        C  0.04623793  0.38930015  0.87082567     0.19800
F951        F  0.04931075  0.36757501  0.89410584    -0.13100
F952        F  0.03313670  0.34839926  0.83515838    -0.15400
F953        F  0.05075875  0.47461261  0.85907490    -0.15400
F954        F  0.03613198  0.45538786  0.79956916    -0.13100
C955        C  0.79734381  0.44853224  0.95584295     0.25000
C956        C  0.82052526  0.42599307  0.94971813    -0.23200
C957        C  0.81266634  0.39391233  0.95061475     0.19900
C958        C  0.78294239  0.38436857  0.96073505     0.24900
C959        C  0.76064903  0.40684915  0.97004763    -0.23100
C960        C  0.76731478  0.43902115  0.96511289     0.19800
F961        F  0.74643188  0.46123152  0.97445331    -0.13100
F962        F  0.80424379  0.47968909  0.95446274    -0.15400
F963        F  0.77765549  0.35328610  0.96584876    -0.15400
F964        F  0.83484631  0.37175552  0.94480416    -0.13100
C965        C  0.91747552  0.43439007  0.81942603     0.25000
C966        C  0.92499736  0.40246624  0.81453448    -0.23200
C967        C  0.91897945  0.38076430  0.83876134     0.19900
C968        C  0.90897814  0.39118664  0.86829265     0.24900
C969        C  0.90500038  0.42345462  0.87414688    -0.23100
C970        C  0.90795544  0.44485964  0.84916102     0.19800
F971        F  0.90235539  0.47594623  0.85375980    -0.13100
F972        F  0.92325637  0.45586741  0.79648062    -0.15400
F973        F  0.90510874  0.36993226  0.89183490    -0.15400
F974        F  0.92673250  0.35000879  0.83507814    -0.13100
C975        C  0.91419349  0.43819198  0.23812408     0.25000
C976        C  0.91928552  0.40591615  0.24402436    -0.23200
C977        C  0.90996831  0.38389769  0.22119709     0.19900
C978        C  0.89973866  0.39406097  0.19161753     0.24900
C979        C  0.89878759  0.42631444  0.18449162    -0.23100
C980        C  0.90463891  0.44833705  0.20826918     0.19800
F981        F  0.90214094  0.47961325  0.20222038    -0.13100
F982        F  0.92282694  0.45994623  0.25984698    -0.15400
F983        F  0.89329972  0.37239166  0.16905323    -0.15400
F984        F  0.91500556  0.35270917  0.22595632    -0.13100
C985        C  0.79606886  0.45036989  0.09575022     0.25000
C986        C  0.81856344  0.42787667  0.10425980    -0.23200
C987        C  0.81011514  0.39590655  0.10498904     0.19900
C988        C  0.78109084  0.38620545  0.09304077     0.24900
C989        C  0.75969866  0.40849105  0.08125671    -0.23100
C990        C  0.76644062  0.44078912  0.08522975     0.19800
F991        F  0.74606479  0.46287647  0.07437145    -0.13100
F992        F  0.80315733  0.48150244  0.09666054    -0.15400
F993        F  0.77574864  0.35497461  0.08908081    -0.15400
F994        F  0.83104334  0.37381551  0.11470696    -0.13100
C995        C  0.04214938  0.68426576  0.20714025     0.25000
C996        C  0.04620058  0.70795676  0.18456001    -0.23200
C997        C  0.04459236  0.73962062  0.19384173     0.19900
C998        C  0.03545193  0.74747752  0.22440534     0.24900
C999        C  0.02795891  0.72371115  0.24622512    -0.23100
C1000       C  0.03382246  0.69209446  0.23798545     0.19800
F1001       F  0.02693887  0.66863512  0.25855272    -0.13100
F1002       F  0.04521148  0.65354668  0.19903184    -0.15400
F1003       F  0.02988543  0.77815443  0.23126274    -0.15400
F1004       F  0.04936989  0.76296981  0.17253875    -0.13100
C1005       C  0.15801400  0.75670627  0.08681922     0.25000
C1006       C  0.18265769  0.73517007  0.08244378    -0.23200
C1007       C  0.17809232  0.70348284  0.09127384     0.19900
C1008       C  0.14843461  0.69297530  0.10064462     0.24900
C1009       C  0.12326032  0.71412046  0.10207534    -0.23100
C1010       C  0.12854513  0.74622778  0.09671745     0.19800
F1011       F  0.10449054  0.76705330  0.09881842    -0.13100
F1012       F  0.16124618  0.78705462  0.07738652    -0.15400
F1013       F  0.14397034  0.66200755  0.10715760    -0.15400
F1014       F  0.20120289  0.68203259  0.08652895    -0.13100
C1015       C  0.90687239  0.74084127  0.19051392     0.25000
C1016       C  0.89955606  0.70938565  0.18371889    -0.23200
C1017       C  0.89966171  0.68708681  0.20809663     0.19900
C1018       C  0.90983235  0.69559168  0.23830595     0.24900
C1019       C  0.92015021  0.72649568  0.24438935    -0.23100
C1020       C  0.91706224  0.74936400  0.22061460     0.19800
F1021       F  0.92797455  0.77901636  0.22532910    -0.13100
F1022       F  0.90661287  0.76282241  0.16729890    -0.15400
F1023       F  0.91313244  0.67296094  0.26065137    -0.15400
F1024       F  0.89104594  0.65688931  0.20233672    -0.13100
C1025       C  0.79002825  0.75600806  0.07856389     0.25000
C1026       C  0.76456082  0.73492682  0.07809882    -0.23200
C1027       C  0.76858014  0.70445987  0.09038241     0.19900
C1028       C  0.79823552  0.69432838  0.10023281     0.24900
C1029       C  0.82402282  0.71477061  0.09862523    -0.23100
C1030       C  0.81959553  0.74596524  0.08883975     0.19800
F1031       F  0.84435426  0.76601839  0.08729326    -0.13100
F1032       F  0.78708448  0.78509405  0.06561252    -0.15400
F1033       F  0.80209001  0.66417784  0.11008834    -0.15400
F1034       F  0.74450212  0.68354720  0.08943286    -0.13100
C1035       C  0.90069671  0.74490329  0.87160223     0.25000
C1036       C  0.89810403  0.71241892  0.87702823    -0.23200
C1037       C  0.90150820  0.69153460  0.85181534     0.19900
C1038       C  0.91075990  0.70276277  0.82230320     0.24900
C1039       C  0.91765207  0.73495321  0.81796641    -0.23100
C1040       C  0.91077278  0.75611396  0.84236507     0.19800
F1041       F  0.91763355  0.78714067  0.83917384    -0.13100
F1042       F  0.89526189  0.76562175  0.89524317    -0.15400
F1043       F  0.91714736  0.68178941  0.79913718    -0.15400
F1044       F  0.89641710  0.66026591  0.85596791    -0.13100
C1045       C  0.79193076  0.68240852  0.96037833     0.25000
C1046       C  0.81384690  0.70541073  0.95175390    -0.23200
C1047       C  0.80363648  0.73673783  0.94798444     0.19900
C1048       C  0.77317845  0.74550517  0.95650432     0.24900
C1049       C  0.75254771  0.72320302  0.96941020    -0.23100
C1050       C  0.76109132  0.69105915  0.96788400     0.19800
F1051       F  0.74140498  0.66875300  0.97940630    -0.13100
F1052       F  0.80073074  0.65180886  0.96286656    -0.15400
F1053       F  0.76563374  0.77652687  0.95667028    -0.15400
F1054       F  0.82405127  0.75949797  0.93882968    -0.13100
C1055       C  0.13678028  0.73978777  0.95098454     0.25000
C1056       C  0.12807045  0.70792966  0.95345352    -0.23200
C1057       C  0.15083854  0.68562994  0.96175775     0.19900
C1058       C  0.18113367  0.69534203  0.97008450     0.24900
C1059       C  0.18830483  0.72768696  0.97253698    -0.23100
C1060       C  0.16659074  0.74965746  0.96073626     0.19800
F1061       F  0.17262560  0.78096536  0.96265892    -0.13100
F1062       F  0.11559235  0.76168300  0.94136858    -0.15400
F1063       F  0.20179367  0.67359556  0.98107184    -0.15400
F1064       F  0.14348141  0.65457156  0.96270226    -0.13100
C1065       C  0.03956814  0.75166697  0.83622807     0.25000
C1066       C  0.02835041  0.73053080  0.81347172    -0.23200
C1067       C  0.03218519  0.69795646  0.81859110     0.19900
C1068       C  0.04186116  0.68678784  0.84805948     0.24900
C1069       C  0.04951021  0.70811157  0.87200414    -0.23100
C1070       C  0.05049602  0.74046834  0.86514637     0.19800
F1071       F  0.05943349  0.76145107  0.88751385    -0.13100
F1072       F  0.03553807  0.78312658  0.83236810    -0.15400
F1073       F  0.04271929  0.65532457  0.85351410    -0.15400
F1074       F  0.02165354  0.67712833  0.79678182    -0.13100
loop_ 
_geom_bond_atom_site_label_1 
_geom_bond_atom_site_label_2 
_geom_bond_distance 
_geom_bond_site_symmetry_2 
_ccdc_geom_bond_type 
C1            N2   1.367       .  A
C1            N6   1.346       .  A
C1         C1056   1.472       .  S
N2            C3   1.368       .  A
C3            N4   1.367       .  A
C3           C51   1.487       .  S
N4            C5   1.366       .  A
C5            N6   1.346       .  A
C5         C1069   1.469       .  S
C7            N8   1.369       .  A
C7           N12   1.348       .  A
C7         C1046   1.479       .  S
N8            C9   1.370       .  A
C9           N10   1.366       .  A
C9           C57   1.488       .  S
N10          C11   1.365       .  A
C11          N12   1.346       .  A
C11        C1036   1.467       .  S
C13          N14   1.365       .  A
C13          N18   1.351       .  A
C13        C1016   1.472       .  S
N14          C15   1.366       .  A
C15          N16   1.363       .  A
C15          C74   1.482       .  S
N16          C17   1.363       .  A
C17          N18   1.351       .  A
C17        C1029   1.465       .  S
C19          N20   1.349       .  A
C19          N24   1.366       .  A
C19         C996   1.471       .  S
N20          C21   1.348       .  A
C21          N22   1.363       .  A
C21        C1009   1.465       .  S
N22          C23   1.364       .  A
C23          N24   1.367       .  A
C23          C80   1.482       .  S
C25          N26   1.364       .  A
C25          N30   1.348       .  A
C25         C979   1.466       .  S
N26          C27   1.364       .  A
C27          N28   1.365       .  A
C27          C77   1.482       .  S
N28          C29   1.365       .  A
C29          N30   1.348       .  A
C29         C986   1.470       .  S
C31          N32   1.350       .  A
C31          N36   1.363       .  A
C31         C956   1.471       .  S
N32          C33   1.350       .  A
C33          N34   1.368       .  A
C33         C969   1.474       .  S
N34          C35   1.368       .  A
C35          N36   1.364       .  A
C35          C54   1.485       .  S
C37          N38   1.345       .  A
C37          N42   1.365       .  A
C37         C936   1.465       .  S
N38          C39   1.344       .  A
C39          N40   1.366       .  A
C39         C949   1.465       .  S
N40          C41   1.367       .  A
C41          N42   1.366       .  A
C41          C60   1.484       .  S
C43          N44   1.367       .  A
C43          N48   1.348       .  A
C43         C919   1.474       .  S
N44          C45   1.367       .  A
C45          N46   1.369       .  A
C45          C71   1.492       .  S
N46          C47   1.368       .  A
C47          N48   1.349       .  A
C47         C926   1.474       .  S
O49         Zr61   2.441       .  S
O49          C51   1.286       .  A
O50         Zr87   2.484   1_456  S
O50          C51   1.299       .  A
O52         Zr64   2.435       .  S
O52          C54   1.285       .  A
O53         Zr88   2.489   1_556  S
O53          C54   1.299       .  A
O55         Zr64   2.440       .  S
O55          C57   1.286       .  A
O56         Zr87   2.487   1_556  S
O56          C57   1.299       .  A
O58         Zr61   2.442       .  S
O58          C60   1.287       .  A
O59         Zr88   2.477   1_456  S
O59          C60   1.297       .  A
Zr61         O62   2.434       .  S
Zr61         O63   2.435       .  S
Zr61         O67   2.378   1_455  S
Zr61         O68   2.370   1_455  S
Zr61         O91   2.372   1_556  S
Zr61         O93   2.374   1_556  S
O62         H105   0.990   1_455  S
O63         H104   0.990       .  S
O63         H108   0.990       .  S
Zr64         O65   2.434       .  S
Zr64         O66   2.434       .  S
Zr64         O68   2.375       .  S
Zr64         O67   2.377       .  S
Zr64         O92   2.370   1_556  S
Zr64         O94   2.375   1_556  S
O65         H106   0.990       .  S
O65         H109   0.990       .  S
O66          H99   0.989   1_556  S
O67         Zr87   2.395   1_556  S
O68         Zr88   2.399   1_556  S
O68          H95   0.965       .  S
O69         Zr81   2.449       .  S
O69          C71   1.288       .  A
O70         Zr88   2.489   1_455  S
O70          C71   1.300       .  A
O72         Zr84   2.439       .  S
O72          C74   1.287       .  A
O73         Zr87   2.479       .  S
O73          C74   1.297       .  A
O75         Zr84   2.434       .  S
O75          C77   1.286       .  A
O76         Zr88   2.482       .  S
O76          C77   1.298       .  A
O78         Zr81   2.442       .  S
O78          C80   1.287       .  A
O79         Zr87   2.475   1_455  S
O79          C80   1.297       .  A
Zr81         O82   2.435       .  S
Zr81         O83   2.437       .  S
Zr81         O89   2.374   1_455  S
Zr81         O90   2.371   1_455  S
Zr81         O93   2.375       .  S
Zr81         O91   2.373       .  S
O82         H102   0.990       .  S
O82         H107   0.990       .  S
O83         H103   0.990       .  S
Zr84         O85   2.436       .  S
Zr84         O86   2.434       .  S
Zr84         O90   2.367       .  S
Zr84         O89   2.375       .  S
Zr84         O94   2.377       .  S
Zr84         O92   2.370       .  S
O85         H101   0.990       .  S
O86         H100   0.990       .  S
O86         H110   0.990       .  S
Zr87         O90   2.396       .  S
Zr87         O92   2.397       .  S
Zr87         O93   2.403   1_655  S
Zr88         O89   2.402       .  S
Zr88         O91   2.394   1_655  S
Zr88         O94   2.399       .  S
O89          H97   0.965       .  S
O92          H96   0.966       .  S
O93          H98   0.965       .  S
C111        N112   1.347       .  A
C111        N116   1.364   1_565  A
C111        C896   1.465       .  S
N112        C113   1.346       .  A
C113        N114   1.365       .  A
C113        C906   1.465       .  S
N114        C115   1.366       .  A
C115        N116   1.365   1_565  A
C115        C161   1.481   1_565  S
C117        N118   1.350       .  A
C117        N122   1.367   1_565  A
C117        C886   1.474       .  S
N118        C119   1.351       .  A
C119        N120   1.367       .  A
C119        C876   1.479       .  S
N120        C121   1.368       .  A
C121        N122   1.367   1_565  A
C121        C167   1.489   1_565  S
C123        N124   1.368       .  A
C123        N128   1.347       .  A
C123        C856   1.474       .  S
N124        C125   1.370       .  A
C125        N126   1.368       .  A
C125        C184   1.491       .  S
N126        C127   1.366       .  A
C127        N128   1.346       .  A
C127        C866   1.470       .  S
C129        N130   1.366       .  A
C129        N134   1.347       .  A
C129        C839   1.469       .  S
N130        C131   1.366       .  A
C131        N132   1.367       .  A
C131        C190   1.485       .  S
N132        C133   1.366       .  A
C133        N134   1.348       .  A
C133        C846   1.473       .  S
C135        N136   1.367       .  A
C135        N140   1.347       .  A
C135        C816   1.470       .  S
N136        C137   1.367       .  A
C137        N138   1.366       .  A
C137        C187   1.488       .  S
N138        C139   1.366       .  A
C139        N140   1.348       .  A
C139        C826   1.471       .  S
C141        N142   1.348       .  A
C141        N146   1.368       .  A
C141        C796   1.474       .  S
N142        C143   1.348       .  A
C143        N144   1.369       .  A
C143        C806   1.479       .  S
N144        C145   1.371       .  A
C145        N146   1.369       .  A
C145        C164   1.495   1_565  S
C147        N148   1.364   1_565  A
C147        N152   1.349       .  A
C147        C776   1.467       .  S
N148        C149   1.365   1_545  A
C149        N150   1.367       .  A
C149        C170   1.484   1_565  S
N150        C151   1.366       .  A
C151        N152   1.349       .  A
C151        C786   1.471       .  S
C153        N154   1.365       .  A
C153        N158   1.349       .  A
C153        C766   1.470       .  S
N154        C155   1.365       .  A
C155        N156   1.367       .  A
C155        C181   1.485       .  S
N156        C157   1.366       .  A
C157        N158   1.350       .  A
C157        C756   1.473       .  S
O159       Zr171   2.436       .  S
O159        C161   1.286       .  A
O160       Zr197   2.480       .  S
O160        C161   1.298       .  A
O162       Zr174   2.430       .  S
O162        C164   1.284       .  A
O163       Zr198   2.508   1_556  S
O163        C164   1.303       .  A
O165       Zr174   2.434       .  S
O165        C167   1.285       .  A
O166       Zr197   2.494   1_556  S
O166        C167   1.300       .  A
O168       Zr171   2.440       .  S
O168        C170   1.286       .  A
O169       Zr198   2.481       .  S
O169        C170   1.298       .  A
Zr171       O172   2.436   1_545  S
Zr171       O173   2.437       .  S
Zr171       O177   2.375       .  S
Zr171       O178   2.374       .  S
Zr171       O201   2.368       .  S
Zr171       O203   2.374       .  S
O172        H215   0.990       .  S
O173        H214   0.990       .  S
O173        H218   0.990       .  S
Zr174       O175   2.437   1_545  S
Zr174       O176   2.432       .  S
Zr174       O178   2.371   1_556  S
Zr174       O177   2.367   1_556  S
Zr174       O202   2.377       .  S
Zr174       O204   2.377       .  S
O175        H216   0.989   1_556  S
O175        H219   0.990       .  S
O176        H209   0.990       .  S
O177       Zr197   2.396       .  S
O178       Zr198   2.398       .  S
O178        H205   0.962       .  S
O179       Zr191   2.436       .  S
O179        C181   1.286       .  A
O180       Zr198   2.488       .  S
O180        C181   1.300       .  A
O182       Zr194   2.439       .  S
O182        C184   1.286       .  A
O183       Zr197   2.493   1_556  S
O183        C184   1.300       .  A
O185       Zr194   2.439       .  S
O185        C187   1.286       .  A
O186       Zr198   2.488   1_556  S
O186        C187   1.299       .  A
O188       Zr191   2.443       .  S
O188        C190   1.287       .  A
O189       Zr197   2.480       .  S
O189        C190   1.298       .  A
Zr191       O192   2.436       .  S
Zr191       O193   2.436       .  S
Zr191       O199   2.377       .  S
Zr191       O200   2.373       .  S
Zr191       O203   2.370       .  S
Zr191       O201   2.373       .  S
O192        H212   0.990       .  S
O192        H217   0.990       .  S
O193        H213   0.990       .  S
Zr194       O195   2.435       .  S
Zr194       O196   2.433       .  S
Zr194       O200   2.372   1_556  S
Zr194       O199   2.371   1_556  S
Zr194       O204   2.377       .  S
Zr194       O202   2.376       .  S
O195        H211   0.990   1_556  S
O196        H210   0.990       .  S
O196        H220   0.990       .  S
Zr197       O200   2.396       .  S
Zr197       O202   2.397   1_554  S
Zr197       O203   2.407       .  S
Zr198       O199   2.404       .  S
Zr198       O201   2.402       .  S
Zr198       O204   2.395   1_554  S
O199        H207   0.962       .  S
O202        H206   0.966       .  S
O203        H208   0.963       .  S
C221        N222   1.364   1_565  A
C221        N226   1.346       .  A
C221        C739   1.464       .  S
N222        C223   1.364   1_545  A
C223        N224   1.367       .  A
C223        C277   1.484   1_565  S
N224        C225   1.367       .  A
C225        N226   1.348       .  A
C225        C749   1.471       .  S
C227        N228   1.365   1_565  A
C227        N232   1.348       .  A
C227        C726   1.471       .  S
N228        C229   1.367   1_545  A
C229        N230   1.365       .  A
C229        C271   1.482   1_565  S
N230        C231   1.364       .  A
C231        N232   1.347       .  A
C231        C719   1.465       .  S
C233        N234   1.349       .  A
C233        N238   1.365       .  A
C233        C696   1.468       .  S
N234        C235   1.349       .  A
C235        N236   1.368       .  A
C235        C706   1.475       .  S
N236        C237   1.368       .  A
C237        N238   1.366       .  A
C237        C300   1.490       .  S
C239        N240   1.349       .  A
C239        N244   1.368       .  A
C239        C676   1.476       .  S
N240        C241   1.349       .  A
C241        N242   1.368       .  A
C241        C686   1.477       .  S
N242        C243   1.369       .  A
C243        N244   1.370       .  A
C243        C294   1.496       .  S
C245        N246   1.366       .  A
C245        N250   1.347       .  A
C245        C656   1.470       .  S
N246        C247   1.366       .  A
C247        N248   1.366       .  A
C247        C291   1.485       .  S
N248        C249   1.365       .  A
C249        N250   1.347       .  A
C249        C666   1.467       .  S
C251        N252   1.350       .  A
C251        N256   1.365   1_565  A
C251        C636   1.471       .  S
N252        C253   1.350       .  A
C253        N254   1.366       .  A
C253        C646   1.473       .  S
N254        C255   1.367       .  A
C255        N256   1.365   1_565  A
C255        C280   1.485   1_565  S
C257        N258   1.348       .  A
C257        N262   1.365   1_565  A
C257        C619   1.469       .  S
N258        C259   1.349       .  A
C259        N260   1.367       .  A
C259        C629   1.474       .  S
N260        C261   1.367       .  A
C261        N262   1.366   1_565  A
C261        C274   1.487   1_565  S
C263        N264   1.348       .  A
C263        N268   1.364       .  A
C263        C596   1.468       .  S
N264        C265   1.349       .  A
C265        N266   1.367       .  A
C265        C606   1.472       .  S
N266        C267   1.367       .  A
C267        N268   1.364       .  A
C267        C297   1.485       .  S
O269       Zr281   2.432       .  S
O269        C271   1.285       .  A
O270       Zr307   2.487       .  S
O270        C271   1.299       .  A
O272       Zr284   2.442       .  S
O272        C274   1.287       .  A
O273       Zr308   2.483   1_455  S
O273        C274   1.298       .  A
O275       Zr284   2.437       .  S
O275        C277   1.286       .  A
O276       Zr307   2.484   1_455  S
O276        C277   1.299       .  A
O278       Zr281   2.441       .  S
O278        C280   1.287       .  A
O279       Zr308   2.482       .  S
O279        C280   1.298       .  A
Zr281       O282   2.436   1_545  S
Zr281       O283   2.436       .  S
Zr281       O287   2.377       .  S
Zr281       O288   2.369       .  S
Zr281       O311   2.370       .  S
Zr281       O313   2.376       .  S
O282        H325   0.990       .  S
O283        H324   0.990       .  S
O283        H328   0.990       .  S
Zr284       O285   2.435   1_545  S
Zr284       O286   2.433       .  S
Zr284       O288   2.370   1_455  S
Zr284       O287   2.374   1_455  S
Zr284       O312   2.372       .  S
Zr284       O314   2.375       .  S
O285        H326   0.990       .  S
O285        H329   0.990       .  S
O286        H319   0.990       .  S
O287       Zr307   2.401       .  S
O288       Zr308   2.398       .  S
O288        H315   0.965       .  S
O289       Zr301   2.433       .  S
O289        C291   1.285       .  A
O290       Zr308   2.491       .  S
O290        C291   1.300       .  A
O292       Zr304   2.439       .  S
O292        C294   1.286       .  A
O293       Zr307   2.503   1_455  S
O293        C294   1.303       .  A
O295       Zr304   2.444       .  S
O295        C297   1.288       .  A
O296       Zr308   2.481   1_455  S
O296        C297   1.298       .  A
O298       Zr301   2.444       .  S
O298        C300   1.288       .  A
O299       Zr307   2.488       .  S
O299        C300   1.300       .  A
Zr301       O302   2.436       .  S
Zr301       O303   2.434       .  S
Zr301       O309   2.374       .  S
Zr301       O310   2.371       .  S
Zr301       O313   2.371       .  S
Zr301       O311   2.376       .  S
O302        H322   0.990       .  S
O302        H327   0.990       .  S
O303        H323   0.990       .  S
Zr304       O305   2.436       .  S
Zr304       O306   2.434       .  S
Zr304       O310   2.372   1_455  S
Zr304       O309   2.372   1_455  S
Zr304       O314   2.375       .  S
Zr304       O312   2.371       .  S
O305        H321   0.990       .  S
O306        H320   0.990       .  S
O306        H330   0.990       .  S
Zr307       O310   2.393       .  S
Zr307       O312   2.396   1_655  S
Zr307       O313   2.401       .  S
Zr308       O309   2.399       .  S
Zr308       O311   2.394       .  S
Zr308       O314   2.397   1_655  S
O309        H317   0.963       .  S
O312        H316   0.966       .  S
O313        H318   0.963       .  S
C331        C916   1.483       .  S
C331        C332   1.390   1_455  A
C331        C336   1.413       .  A
C332        C333   1.388       .  A
C332        H351   1.087       .  S
C333        C976   1.479       .  S
C333        C334   1.412       .  A
C334        C335   1.424       .  A
C334        C341   1.404       .  A
C335        C336   1.425   1_655  A
C335        C340   1.418       .  A
C336        C337   1.404       .  A
C337        C338   1.396       .  A
C337        H347   1.083       .  S
C338        C339   1.405       .  A
C338        H348   1.083       .  S
C339        C340   1.424   1_455  A
C339        C346   1.413       .  A
C340        C343   1.424       .  A
C341        C342   1.396       .  A
C341        H349   1.083       .  S
C342        C343   1.405       .  A
C342        H350   1.083       .  S
C343        C344   1.414       .  A
C344        C659   1.484       .  S
C344        C345   1.392       .  A
C345        C346   1.391   1_655  A
C345        H352   1.086       .  S
C346        C599   1.485       .  S
C353        C759   1.486       .  S
C353        C354   1.393       .  A
C353        C358   1.417       .  A
C354        C355   1.390       .  A
C354        H373   1.086       .  S
C355        C779   1.479       .  S
C355        C356   1.412       .  A
C356        C357   1.421       .  A
C356        C363   1.405       .  A
C357        C358   1.423       .  A
C357        C362   1.417       .  A
C358        C359   1.405       .  A
C359        C360   1.399       .  A
C359        H369   1.083       .  S
C360        C361   1.406       .  A
C360        H370   1.083       .  S
C361        C362   1.423       .  A
C361        C368   1.414       .  A
C362        C365   1.425       .  A
C363        C364   1.398       .  A
C363        H371   1.083   1_545  S
C364        C365   1.404       .  A
C364        H372   1.083   1_545  S
C365        C366   1.413       .  A
C366        C616   1.481       .  S
C366        C367   1.388       .  A
C367        C368   1.391       .  A
C367        H374   1.087       .  S
C368        C609   1.480       .  S
C375        C939   1.479   1_554  S
C375        C376   1.389       .  A
C375        C380   1.414   1_554  A
C376        C377   1.390       .  A
C376        H395   1.086       .  S
C377        C929   1.485       .  S
C377        C378   1.415       .  A
C378        C379   1.425       .  A
C378        C385   1.404       .  A
C379        C380   1.422   1_554  A
C379        C384   1.418       .  A
C380        C381   1.406       .  A
C381        C382   1.399       .  A
C381        H391   1.083       .  S
C382        C383   1.405       .  A
C382        H392   1.083       .  S
C383        C384   1.426   1_556  A
C383        C390   1.416       .  A
C384        C387   1.422       .  A
C385        C386   1.397       .  A
C385        H393   1.083       .  S
C386        C387   1.405       .  A
C386        H394   1.083       .  S
C387        C388   1.412       .  A
C388        C769   1.477       .  S
C388        C389   1.388       .  A
C389        C390   1.389   1_554  A
C389        H396   1.087       .  S
C390        C819   1.483       .  S
C397        C849   1.485       .  S
C397        C398   1.390       .  A
C397        C402   1.417       .  A
C398        C399   1.388       .  A
C398        H417   1.087       .  S
C399        C899   1.479       .  S
C399        C400   1.410       .  A
C400        C401   1.424       .  A
C400        C407   1.404       .  A
C401        C402   1.426       .  A
C401        C406   1.418       .  A
C402        C403   1.405       .  A
C403        C404   1.399       .  A
C403        H413   1.083       .  S
C404        C405   1.406       .  A
C404        H414   1.083       .  S
C405        C406   1.424       .  A
C405        C412   1.415       .  A
C406        C409   1.425       .  A
C407        C408   1.395       .  A
C407        H415   1.083   1_545  S
C408        C409   1.404       .  A
C408        H416   1.083   1_545  S
C409        C410   1.412       .  A
C410        C639   1.484       .  S
C410        C411   1.389       .  A
C411        C412   1.390       .  A
C411        H418   1.086       .  S
C412        C669   1.483       .  S
C419        C999   1.486       .  S
C419        C420   1.394   1_455  A
C419        C424   1.417       .  A
C420        C421   1.390       .  A
C420        H439   1.086       .  S
C421       C1019   1.482       .  S
C421        C422   1.413       .  A
C422        C423   1.422       .  A
C422        C429   1.405       .  A
C423        C424   1.424   1_655  A
C423        C428   1.419       .  A
C424        C425   1.405       .  A
C425        C426   1.399       .  A
C425        H435   1.083       .  S
C426        C427   1.405       .  A
C426        H436   1.083       .  S
C427        C428   1.424   1_455  A
C427        C434   1.415       .  A
C428        C431   1.426       .  A
C429        C430   1.397       .  A
C429        H437   1.083       .  S
C430        C431   1.404       .  A
C430        H438   1.083       .  S
C431        C432   1.414       .  A
C432        C649   1.482       .  S
C432        C433   1.388       .  A
C433        C434   1.391   1_655  A
C433        H440   1.087       .  S
C434        C626   1.481       .  S
C441        C829   1.486       .  S
C441        C442   1.391       .  A
C441        C446   1.417       .  A
C442        C443   1.388       .  A
C442        H461   1.087       .  S
C443        C799   1.486       .  S
C443        C444   1.417       .  A
C444        C445   1.427       .  A
C444        C451   1.404       .  A
C445        C446   1.424       .  A
C445        C450   1.421       .  A
C446        C447   1.406       .  A
C447        C448   1.400       .  A
C447        H457   1.083       .  S
C448        C449   1.404       .  A
C448        H458   1.083       .  S
C449        C450   1.427       .  A
C449        C456   1.419       .  A
C450        C453   1.424       .  A
C451        C452   1.399       .  A
C451        H459   1.083   1_545  S
C452        C453   1.406       .  A
C452        H460   1.083   1_545  S
C453        C454   1.414       .  A
C454        C736   1.480       .  S
C454        C455   1.388       .  A
C455        C456   1.389       .  A
C455        H462   1.087       .  S
C456        C689   1.488       .  S
C463        C966   1.481       .  S
C463        C464   1.387       .  A
C463        C468   1.414       .  A
C464        C465   1.390   1_655  A
C464        H483   1.087       .  S
C465        C946   1.477       .  S
C465        C466   1.413       .  A
C466        C467   1.423   1_455  A
C466        C473   1.405       .  A
C467        C468   1.425       .  A
C467        C472   1.418       .  A
C468        C469   1.404       .  A
C469        C470   1.398       .  A
C469        H479   1.083       .  S
C470        C471   1.405       .  A
C470        H480   1.083       .  S
C471        C472   1.422       .  A
C471        C478   1.412       .  A
C472        C475   1.424   1_655  A
C473        C474   1.400       .  A
C473        H481   1.083       .  S
C474        C475   1.406       .  A
C474        H482   1.083       .  S
C475        C476   1.417       .  A
C476        C679   1.483       .  S
C476        C477   1.391   1_455  A
C477        C478   1.390       .  A
C477        H484   1.087       .  S
C478        C699   1.480       .  S
C485       C1006   1.480       .  S
C485        C486   1.386       .  A
C485        C490   1.413       .  A
C486        C487   1.390   1_554  A
C486        H505   1.087       .  S
C487       C1059   1.483       .  S
C487        C488   1.417       .  A
C488        C489   1.425   1_556  A
C488        C495   1.406       .  A
C489        C490   1.425       .  A
C489        C494   1.420       .  A
C490        C491   1.404       .  A
C491        C492   1.398       .  A
C491        H501   1.083       .  S
C492        C493   1.406       .  A
C492        H502   1.083       .  S
C493        C494   1.424       .  A
C493        C500   1.414       .  A
C494        C497   1.426   1_554  A
C495        C496   1.400       .  A
C495        H503   1.083       .  S
C496        C497   1.405       .  A
C496        H504   1.083       .  S
C497        C498   1.419       .  A
C498        C809   1.489       .  S
C498        C499   1.390   1_556  A
C499        C500   1.389       .  A
C499        H506   1.087       .  S
C500        C789   1.482       .  S
C507        C989   1.484       .  S
C507        C508   1.389       .  A
C507        C512   1.415       .  A
C508        C509   1.390   1_554  A
C508        H527   1.087       .  S
C509        C959   1.483       .  S
C509        C510   1.415       .  A
C510        C511   1.425   1_556  A
C510        C517   1.405       .  A
C511        C512   1.425       .  A
C511        C516   1.419       .  A
C512        C513   1.405       .  A
C513        C514   1.397       .  A
C513        H523   1.083       .  S
C514        C515   1.404       .  A
C514        H524   1.083       .  S
C515        C516   1.425       .  A
C515        C522   1.413       .  A
C516        C519   1.424   1_554  A
C517        C518   1.399       .  A
C517        H525   1.083       .  S
C518        C519   1.406       .  A
C518        H526   1.083       .  S
C519        C520   1.416       .  A
C520        C859   1.482       .  S
C520        C521   1.391   1_556  A
C521        C522   1.388       .  A
C521        H528   1.087       .  S
C522        C836   1.482       .  S
C529       C1066   1.478       .  S
C529        C530   1.388   1_455  A
C529        C534   1.412       .  A
C530        C531   1.387       .  A
C530        H549   1.087       .  S
C531       C1039   1.480       .  S
C531        C532   1.415       .  A
C532        C533   1.426       .  A
C532        C539   1.405       .  A
C533        C534   1.424   1_655  A
C533        C538   1.418       .  A
C534        C535   1.405       .  A
C535        C536   1.397       .  A
C535        H545   1.083       .  S
C536        C537   1.405       .  A
C536        H546   1.083       .  S
C537        C538   1.424   1_455  A
C537        C544   1.414       .  A
C538        C541   1.423       .  A
C539        C540   1.399       .  A
C539        H547   1.083       .  S
C540        C541   1.405       .  A
C540        H548   1.083       .  S
C541        C542   1.414       .  A
C542        C716   1.480       .  S
C542        C543   1.390       .  A
C543        C544   1.391   1_655  A
C543        H550   1.087       .  S
C544        C746   1.483       .  S
C551        C889   1.483       .  S
C551        C552   1.388       .  A
C551        C556   1.416       .  A
C552        C553   1.390       .  A
C552        H571   1.088       .  S
C553        C869   1.479       .  S
C553        C554   1.414       .  A
C554        C555   1.423       .  A
C554        C561   1.406       .  A
C555        C556   1.426       .  A
C555        C560   1.419       .  A
C556        C557   1.404       .  A
C557        C558   1.399       .  A
C557        H567   1.083   1_545  S
C558        C559   1.406       .  A
C558        H568   1.083   1_545  S
C559        C560   1.423       .  A
C559        C566   1.416       .  A
C560        C563   1.426       .  A
C561        C562   1.399       .  A
C561        H569   1.083       .  S
C562        C563   1.404       .  A
C562        H570   1.083       .  S
C563        C564   1.415       .  A
C564        C709   1.486       .  S
C564        C565   1.389       .  A
C565        C566   1.391       .  A
C565        H572   1.086       .  S
C566        C729   1.483       .  S
C573       C1026   1.476       .  S
C573        C574   1.385       .  A
C573        C578   1.407       .  A
C574        C575   1.394   1_554  A
C574        H593   1.087       .  S
C575       C1049   1.490       .  S
C575        C576   1.423       .  A
C576        C577   1.427   1_556  A
C576        C583   1.407       .  A
C577        C578   1.422       .  A
C577        C582   1.419       .  A
C578        C579   1.404       .  A
C579        C580   1.394       .  A
C579        H589   1.083       .  S
C580        C581   1.403       .  A
C580        H590   1.083       .  S
C581        C582   1.425       .  A
C581        C588   1.411       .  A
C582        C585   1.424   1_554  A
C583        C584   1.403       .  A
C583        H591   1.083       .  S
C584        C585   1.406       .  A
C584        H592   1.083       .  S
C585        C586   1.419       .  A
C586        C879   1.488       .  S
C586        C587   1.392   1_556  A
C587        C588   1.388       .  A
C587        H594   1.087       .  S
C588        C909   1.480       .  S
C595        C596   1.401       .  A
C595        C600   1.398       .  A
C595        F602   1.358       .  S
C596        C597   1.405       .  A
C597        C598   1.398       .  A
C597        F604   1.358       .  S
C598        C599   1.406       .  A
C598        F603   1.357       .  S
C599        C600   1.412       .  A
C600        F601   1.358       .  S
C605        C606   1.402       .  A
C605        C610   1.400       .  A
C605        F612   1.358       .  S
C606        C607   1.406       .  A
C607        C608   1.399       .  A
C607        F614   1.358       .  S
C608        C609   1.406       .  A
C608        F613   1.358       .  S
C609        C610   1.411       .  A
C610        F611   1.358       .  S
C615        C616   1.410       .  A
C615        C620   1.399   1_545  A
C615        F622   1.358       .  S
C616        C617   1.407       .  A
C617        C618   1.401   1_545  A
C617        F624   1.358       .  S
C618        C619   1.405       .  A
C618        F623   1.358       .  S
C619        C620   1.401       .  A
C620        F621   1.358       .  S
C625        C626   1.406       .  A
C625        C630   1.399       .  A
C625        F632   1.358       .  S
C626        C627   1.410       .  A
C627        C628   1.400       .  A
C627        F634   1.358       .  S
C628        C629   1.402       .  A
C628        F633   1.357       .  S
C629        C630   1.407       .  A
C630        F631   1.358       .  S
C635        C636   1.402       .  A
C635        C640   1.399   1_565  A
C635        F642   1.358       .  S
C636        C637   1.406       .  A
C637        C638   1.400   1_565  A
C637        F644   1.358       .  S
C638        C639   1.406       .  A
C638        F643   1.358       .  S
C639        C640   1.410       .  A
C640        F641   1.358       .  S
C645        C646   1.403       .  A
C645        C650   1.402       .  A
C645        F652   1.358       .  S
C646        C647   1.404       .  A
C647        C648   1.400       .  A
C647        F654   1.358       .  S
C648        C649   1.406       .  A
C648        F653   1.358       .  S
C649        C650   1.410       .  A
C650        F651   1.358       .  S
C655        C656   1.401       .  A
C655        C660   1.399       .  A
C655        F662   1.358       .  S
C656        C657   1.407       .  A
C657        C658   1.398       .  A
C657        F664   1.358       .  S
C658        C659   1.406       .  A
C658        F663   1.358       .  S
C659        C660   1.412       .  A
C660        F661   1.358       .  S
C665        C666   1.405       .  A
C665        C670   1.398       .  A
C665        F672   1.358       .  S
C666        C667   1.401       .  A
C667        C668   1.399       .  A
C667        F674   1.358       .  S
C668        C669   1.412       .  A
C668        F673   1.358       .  S
C669        C670   1.406       .  A
C670        F671   1.358       .  S
C675        C676   1.405       .  A
C675        C680   1.398       .  A
C675        F682   1.358       .  S
C676        C677   1.404       .  A
C677        C678   1.403       .  A
C677        F684   1.357       .  S
C678        C679   1.412       .  A
C678        F683   1.358       .  S
C679        C680   1.406       .  A
C680        F681   1.358       .  S
C685        C686   1.402       .  A
C685        C690   1.402       .  A
C685        F692   1.358       .  S
C686        C687   1.407       .  A
C687        C688   1.402       .  A
C687        F694   1.358       .  S
C688        C689   1.406       .  A
C688        F693   1.358       .  S
C689        C690   1.414       .  A
C690        F691   1.358       .  S
C695        C696   1.403       .  A
C695        C700   1.397       .  A
C695        F702   1.358       .  S
C696        C697   1.402       .  A
C697        C698   1.400       .  A
C697        F704   1.358       .  S
C698        C699   1.409       .  A
C698        F703   1.358       .  S
C699        C700   1.407       .  A
C700        F701   1.358       .  S
C705        C706   1.402       .  A
C705        C710   1.401       .  A
C705        F712   1.357       .  S
C706        C707   1.406       .  A
C707        C708   1.402       .  A
C707        F714   1.358       .  S
C708        C709   1.407       .  A
C708        F713   1.358       .  S
C709        C710   1.412       .  A
C710        F711   1.358       .  S
C715        C716   1.410       .  A
C715        C720   1.400       .  A
C715        F722   1.358       .  S
C716        C717   1.407       .  A
C717        C718   1.398       .  A
C717        F724   1.358       .  S
C718        C719   1.403       .  A
C718        F723   1.358       .  S
C719        C720   1.401       .  A
C720        F721   1.358       .  S
C725        C726   1.405       .  A
C725        C730   1.397   1_565  A
C725        F732   1.358       .  S
C726        C727   1.402   1_565  A
C727        C728   1.401       .  A
C727        F734   1.358       .  S
C728        C729   1.412       .  A
C728        F733   1.358       .  S
C729        C730   1.406       .  A
C730        F731   1.358       .  S
C735        C736   1.412       .  A
C735        C740   1.397   1_545  A
C735        F742   1.358       .  S
C736        C737   1.406       .  A
C737        C738   1.398   1_545  A
C737        F744   1.358       .  S
C738        C739   1.404       .  A
C738        F743   1.358       .  S
C739        C740   1.399       .  A
C740        F741   1.358       .  S
C745        C746   1.406       .  A
C745        C750   1.397       .  A
C745        F752   1.358       .  S
C746        C747   1.411       .  A
C747        C748   1.400       .  A
C747        F754   1.358       .  S
C748        C749   1.401       .  A
C748        F753   1.358       .  S
C749        C750   1.407       .  A
C750        F751   1.358       .  S
C755        C756   1.402       .  A
C755        C760   1.400       .  A
C755        F762   1.358       .  S
C756        C757   1.405       .  A
C757        C758   1.399       .  A
C757        F764   1.358       .  S
C758        C759   1.408       .  A
C758        F763   1.358       .  S
C759        C760   1.412       .  A
C760        F761   1.358       .  S
C765        C766   1.402       .  A
C765        C770   1.399       .  A
C765        F772   1.358       .  S
C766        C767   1.405       .  A
C767        C768   1.398       .  A
C767        F774   1.358       .  S
C768        C769   1.405       .  A
C768        F773   1.358       .  S
C769        C770   1.409       .  A
C770        F771   1.358       .  S
C775        C776   1.402   1_545  A
C775        C780   1.396       .  A
C775        F782   1.358       .  S
C776        C777   1.403       .  A
C777        C778   1.401   1_565  A
C777        F784   1.358       .  S
C778        C779   1.409       .  A
C778        F783   1.358       .  S
C779        C780   1.407       .  A
C780        F781   1.358       .  S
C785        C786   1.402       .  A
C785        C790   1.399       .  A
C785        F792   1.358       .  S
C786        C787   1.405       .  A
C787        C788   1.400       .  A
C787        F794   1.358       .  S
C788        C789   1.406       .  A
C788        F793   1.358       .  S
C789        C790   1.411       .  A
C790        F791   1.358       .  S
C795        C796   1.403       .  A
C795        C800   1.404       .  A
C795        F802   1.358       .  S
C796        C797   1.404       .  A
C797        C798   1.399   1_565  A
C797        F804   1.358       .  S
C798        C799   1.405       .  A
C798        F803   1.357       .  S
C799        C800   1.414   1_545  A
C800        F801   1.358   1_565  S
C805        C806   1.408       .  A
C805        C810   1.401       .  A
C805        F812   1.358       .  S
C806        C807   1.402       .  A
C807        C808   1.403       .  A
C807        F814   1.357       .  S
C808        C809   1.414       .  A
C808        F813   1.358       .  S
C809        C810   1.406       .  A
C810        F811   1.358       .  S
C815        C816   1.406       .  A
C815        C820   1.400       .  A
C815        F822   1.358       .  S
C816        C817   1.400       .  A
C817        C818   1.400       .  A
C817        F824   1.358       .  S
C818        C819   1.412       .  A
C818        F823   1.358       .  S
C819        C820   1.406       .  A
C820        F821   1.358       .  S
C825        C826   1.400       .  A
C825        C830   1.399       .  A
C825        F832   1.358       .  S
C826        C827   1.407       .  A
C827        C828   1.398       .  A
C827        F834   1.358       .  S
C828        C829   1.406       .  A
C828        F833   1.358       .  S
C829        C830   1.414       .  A
C830        F831   1.358       .  S
C835        C836   1.410       .  A
C835        C840   1.400       .  A
C835        F842   1.357       .  S
C836        C837   1.406       .  A
C837        C838   1.400       .  A
C837        F844   1.358       .  S
C838        C839   1.405       .  A
C838        F843   1.358       .  S
C839        C840   1.401       .  A
C840        F841   1.358       .  S
C845        C846   1.402       .  A
C845        C850   1.401       .  A
C845        F852   1.358       .  S
C846        C847   1.406       .  A
C847        C848   1.398       .  A
C847        F854   1.358       .  S
C848        C849   1.405       .  A
C848        F853   1.357       .  S
C849        C850   1.413       .  A
C850        F851   1.358       .  S
C855        C856   1.403       .  A
C855        C860   1.402       .  A
C855        F862   1.357       .  S
C856        C857   1.407       .  A
C857        C858   1.397       .  A
C857        F864   1.358       .  S
C858        C859   1.405       .  A
C858        F863   1.358       .  S
C859        C860   1.411       .  A
C860        F861   1.358       .  S
C865        C866   1.406       .  A
C865        C870   1.399       .  A
C865        F872   1.358       .  S
C866        C867   1.401       .  A
C867        C868   1.400       .  A
C867        F874   1.357       .  S
C868        C869   1.409       .  A
C868        F873   1.358       .  S
C869        C870   1.405       .  A
C870        F871   1.358       .  S
C875        C876   1.407       .  A
C875        C880   1.400       .  A
C875        F882   1.358       .  S
C876        C877   1.403       .  A
C877        C878   1.402       .  A
C877        F884   1.358       .  S
C878        C879   1.413       .  A
C878        F883   1.358       .  S
C879        C880   1.406       .  A
C880        F881   1.358       .  S
C885        C886   1.403       .  A
C885        C890   1.402   1_565  A
C885        F892   1.358       .  S
C886        C887   1.404   1_565  A
C887        C888   1.401       .  A
C887        F894   1.358   1_545  S
C888        C889   1.408       .  A
C888        F893   1.358       .  S
C889        C890   1.410       .  A
C890        F891   1.358       .  S
C895        C896   1.404       .  A
C895        C900   1.396   1_565  A
C895        F902   1.358       .  S
C896        C897   1.401       .  A
C897        C898   1.398   1_565  A
C897        F904   1.358       .  S
C898        C899   1.410       .  A
C898        F903   1.358       .  S
C899        C900   1.405       .  A
C900        F901   1.358       .  S
C905        C906   1.403       .  A
C905        C910   1.398       .  A
C905        F912   1.358       .  S
C906        C907   1.401       .  A
C907        C908   1.399       .  A
C907        F914   1.358       .  S
C908        C909   1.410       .  A
C908        F913   1.358       .  S
C909        C910   1.407       .  A
C910        F911   1.358       .  S
C915        C916   1.406       .  A
C915        C920   1.401       .  A
C915        F922   1.358       .  S
C916        C917   1.410       .  A
C917        C918   1.399       .  A
C917        F924   1.358       .  S
C918        C919   1.401       .  A
C918        F923   1.357       .  S
C919        C920   1.408       .  A
C920        F921   1.358       .  S
C925        C926   1.406       .  A
C925        C930   1.399       .  A
C925        F932   1.358       .  S
C926        C927   1.402       .  A
C927        C928   1.402       .  A
C927        F934   1.358       .  S
C928        C929   1.412       .  A
C928        F933   1.358       .  S
C929        C930   1.406       .  A
C930        F931   1.358       .  S
C935        C936   1.401       .  A
C935        C940   1.399       .  A
C935        F942   1.358       .  S
C936        C937   1.404       .  A
C937        C938   1.395       .  A
C937        F944   1.358       .  S
C938        C939   1.405       .  A
C938        F943   1.358       .  S
C939        C940   1.412       .  A
C940        F941   1.358       .  S
C945        C946   1.407       .  A
C945        C950   1.398       .  A
C945        F952   1.358       .  S
C946        C947   1.410       .  A
C947        C948   1.399       .  A
C947        F954   1.358       .  S
C948        C949   1.401       .  A
C948        F953   1.358       .  S
C949        C950   1.405       .  A
C950        F951   1.358       .  S
C955        C956   1.402       .  A
C955        C960   1.400       .  A
C955        F962   1.358       .  S
C956        C957   1.405       .  A
C957        C958   1.399       .  A
C957        F964   1.358       .  S
C958        C959   1.406       .  A
C958        F963   1.358       .  S
C959        C960   1.412       .  A
C960        F961   1.358       .  S
C965        C966   1.410       .  A
C965        C970   1.402       .  A
C965        F972   1.358       .  S
C966        C967   1.406       .  A
C967        C968   1.400       .  A
C967        F974   1.358       .  S
C968        C969   1.405       .  A
C968        F973   1.358       .  S
C969        C970   1.403       .  A
C970        F971   1.358       .  S
C975        C976   1.411       .  A
C975        C980   1.399       .  A
C975        F982   1.358       .  S
C976        C977   1.406       .  A
C977        C978   1.397       .  A
C977        F984   1.358       .  S
C978        C979   1.404       .  A
C978        F983   1.358       .  S
C979        C980   1.401       .  A
C980        F981   1.358       .  S
C985        C986   1.400       .  A
C985        C990   1.399       .  A
C985        F992   1.358       .  S
C986        C987   1.406       .  A
C987        C988   1.398       .  A
C987        F994   1.358       .  S
C988        C989   1.405       .  A
C988        F993   1.358       .  S
C989        C990   1.413       .  A
C990        F991   1.358       .  S
C995        C996   1.401       .  A
C995       C1000   1.400       .  A
C995       F1002   1.358       .  S
C996        C997   1.405       .  A
C997        C998   1.399       .  A
C997       F1004   1.358       .  S
C998        C999   1.408       .  A
C998       F1003   1.358       .  S
C999       C1000   1.412       .  A
C1000      F1001   1.358       .  S
C1005      C1006   1.406       .  A
C1005      C1010   1.398       .  A
C1005      F1012   1.357       .  S
C1006      C1007   1.411       .  A
C1007      C1008   1.399       .  A
C1007      F1014   1.358       .  S
C1008      C1009   1.401       .  A
C1008      F1013   1.358       .  S
C1009      C1010   1.402       .  A
C1010      F1011   1.358       .  S
C1015      C1016   1.403       .  A
C1015      C1020   1.398       .  A
C1015      F1022   1.358       .  S
C1016      C1017   1.403       .  A
C1017      C1018   1.402       .  A
C1017      F1024   1.358       .  S
C1018      C1019   1.409       .  A
C1018      F1023   1.358       .  S
C1019      C1020   1.407       .  A
C1020      F1021   1.358       .  S
C1025      C1026   1.407       .  A
C1025      C1030   1.399       .  A
C1025      F1032   1.358       .  S
C1026      C1027   1.406       .  A
C1027      C1028   1.398       .  A
C1027      F1034   1.358       .  S
C1028      C1029   1.402       .  A
C1028      F1033   1.358       .  S
C1029      C1030   1.402       .  A
C1030      F1031   1.358       .  S
C1035      C1036   1.404       .  A
C1035      C1040   1.399       .  A
C1035      F1042   1.358       .  S
C1036      C1037   1.401       .  A
C1037      C1038   1.399       .  A
C1037      F1044   1.358       .  S
C1038      C1039   1.411       .  A
C1038      F1043   1.358       .  S
C1039      C1040   1.406       .  A
C1040      F1041   1.358       .  S
C1045      C1046   1.401       .  A
C1045      C1050   1.403       .  A
C1045      F1052   1.358       .  S
C1046      C1047   1.410       .  A
C1047      C1048   1.399       .  A
C1047      F1054   1.358       .  S
C1048      C1049   1.405       .  A
C1048      F1053   1.358       .  S
C1049      C1050   1.416       .  A
C1050      F1051   1.358       .  S
C1055      C1056   1.408       .  A
C1055      C1060   1.399       .  A
C1055      F1062   1.358       .  S
C1056      C1057   1.401       .  A
C1057      C1058   1.400       .  A
C1057      F1064   1.358       .  S
C1058      C1059   1.412       .  A
C1058      F1063   1.358       .  S
C1059      C1060   1.406       .  A
C1060      F1061   1.358       .  S
C1065      C1066   1.404       .  A
C1065      C1070   1.396       .  A
C1065      F1072   1.358       .  S
C1066      C1067   1.411       .  A
C1067      C1068   1.400       .  A
C1067      F1074   1.358       .  S
C1068      C1069   1.402       .  A
C1068      F1073   1.358       .  S
C1069      C1070   1.406       .  A
C1070      F1071   1.358       .  S
