geometry optimzed in LAMMPS
_audit_creation_date              2020-12-01 
_audit_creation_method            'lammps2cif' 
_symmetry_space_group_name_H-M    'P1' 
_symmetry_Int_Tables_number       1 
_symmetry_cell_setting            triclinic 
loop_ 
_symmetry_equiv_pos_as_xyz 
  x,y,z 
_cell_length_a                    30.31259717 
_cell_length_b                    30.321320267477596 
_cell_length_c                    38.74295035476321 
_cell_angle_alpha                 89.96943051168155 
_cell_angle_beta                  90.01413283424245 
_cell_angle_gamma                 119.99774185670616 
loop_ 
_atom_site_label 
_atom_site_type_symbol 
_atom_site_fract_x 
_atom_site_fract_y 
_atom_site_fract_z 
_atom_site_charge 
O1          O  0.66596277  0.71307342  0.35396807    -0.71500
O2          O  0.79384184  0.83590848  0.35467684    -0.71700
O3          O  0.71347510  0.79536313  0.31232350    -0.71600
O4          O  0.74734144  0.75480412  0.39643681    -0.71600
O5          O  0.78024354  0.71690368  0.36792421    -0.71500
O6          O  0.74773533  0.75868808  0.28347578    -0.71600
O7          O  0.82743176  0.79815799  0.32652948    -0.71500
O8          O  0.69962407  0.67633155  0.32452475    -0.71700
V9          V  0.73058751  0.77384058  0.35382074     1.35200
V10         V  0.76290204  0.73802548  0.32620271     1.35200
C11         C  0.66093834  0.67403235  0.33859175     0.77700
C12         C  0.83250561  0.83794003  0.34065026     0.77800
C13         C  0.72680794  0.78582191  0.28364888     0.77700
C14         C  0.77114703  0.73047245  0.39674390     0.77600
O15         O  0.29329006  0.33469130  0.32038348    -0.71500
O16         O  0.16972220  0.20827229  0.31454124    -0.71700
O17         O  0.20703732  0.28698851  0.35834644    -0.71600
O18         O  0.25460693  0.25474182  0.27656525    -0.71600
O19         O  0.28341501  0.21467165  0.30735608    -0.71500
O20         O  0.24516298  0.25615542  0.38928248    -0.71600
O21         O  0.20147710  0.17421631  0.34848418    -0.71500
O22         O  0.32806187  0.29783831  0.34822583    -0.71700
V23         V  0.23204511  0.27077160  0.31804854     1.35200
V24         V  0.26413931  0.23660746  0.34772953     1.35200
C25         C  0.33222879  0.33771116  0.33473369     0.77700
C26         C  0.16425995  0.16992677  0.33106292     0.77800
C27         C  0.21710210  0.27595016  0.38770018     0.77700
C28         C  0.27414690  0.22642575  0.27799446     0.77600
O29         O  0.96665680  0.66501411  0.68367412    -0.71500
O30         O  0.96803602  0.79089823  0.68065914    -0.71700
O31         O  0.92972391  0.70840201  0.63992276    -0.71600
O32         O  0.00466684  0.74827615  0.72390279    -0.71600
O33         O  0.07541948  0.78397509  0.69489395    -0.71500
O34         O  0.00051381  0.73996649  0.61115593    -0.71600
O35         O  0.03734875  0.82378200  0.65011315    -0.71500
O36         O  0.03856447  0.69934251  0.65624291    -0.71700
V37         V  0.96857483  0.72857583  0.68143038     1.35200
V38         V  0.03655318  0.76090490  0.65362629     1.35200
C39         C  0.00296889  0.66088338  0.67122276     0.77700
C40         C  0.00275264  0.82870214  0.66467954     0.77800
C41         C  0.95240234  0.71836797  0.61112190     0.77700
C42         C  0.05281631  0.77407584  0.72368015     0.77600
O43         O  0.04584999  0.32676077  0.68915942    -0.71500
O44         O  0.03870978  0.19831577  0.68406547    -0.71700
O45         O  0.08036223  0.28204344  0.64478200    -0.71600
O46         O  0.00387724  0.24173453  0.72820212    -0.71600
O47         O  0.93376982  0.21218335  0.69878649    -0.71500
O48         O  0.01004130  0.25110735  0.61540491    -0.71600
O49         O  0.96817413  0.16771484  0.65520729    -0.71500
O50         O  0.97627267  0.29680143  0.65897321    -0.71700
V51         V  0.04083930  0.26184884  0.68600276     1.35200
V52         V  0.97341585  0.23277263  0.65770593     1.35200
C53         C  0.01270660  0.33384073  0.67443520     0.77700
C54         C  0.00222330  0.16097601  0.66888451     0.77800
C55         C  0.05798084  0.27130205  0.61585442     0.77700
C56         C  0.95569677  0.21800640  0.72756547     0.77600
O57         O  0.65914969  0.95792984  0.98774763    -0.71500
O58         O  0.78459943  0.95861273  0.98240313    -0.71700
O59         O  0.70691950  0.92047253  0.02716897    -0.71600
O60         O  0.73792145  0.99586464  0.94329804    -0.71600
O61         O  0.77681807  0.06617051  0.97227459    -0.71500
O62         O  0.74155199  0.99123663  0.05620983    -0.71600
O63         O  0.82089445  0.02774271  0.01279149    -0.71500
O64         O  0.69671645  0.02965914  0.01526892    -0.71700
V65         V  0.72258522  0.95949611  0.98576841     1.35200
V66         V  0.75807780  0.02728675  0.01362700     1.35200
C67         C  0.65664812  0.99435747  0.00160980     0.77700
C68         C  0.82428204  0.99316804  0.99679612     0.77800
C69         C  0.72053276  0.94323445  0.05590362     0.77700
C70         C  0.76434666  0.04403354  0.94334606     0.77600
O71         O  0.29848060  0.98362408  0.01055891    -0.71500
O72         O  0.17160851  0.97943860  0.00817026    -0.71700
O73         O  0.21847888  0.94469529  0.96693939    -0.71600
O74         O  0.25133080  0.01884849  0.05136494    -0.71600
O75         O  0.28406277  0.08967417  0.02236667    -0.71500
O76         O  0.25459619  0.01563193  0.93848772    -0.71600
O77         O  0.20539938  0.04925021  0.97818485    -0.71500
O78         O  0.33376866  0.05534673  0.98253635    -0.71700
V79         V  0.23578057  0.98301425  0.00867803     1.35200
V80         V  0.26896973  0.05114945  0.98098471     1.35200
C81         C  0.33779896  0.02035645  0.99739064     0.77700
C82         C  0.16660181  0.01322376  0.99251170     0.77800
C83         C  0.22997283  0.96755944  0.93811750     0.77700
C84         C  0.27181535  0.06684726  0.05108466     0.77600
C85         C  0.05089734  0.02219211  0.96432738    -0.22200
C86         C  0.01999677  0.00290407  0.99363918     0.09800
C87         C  0.03676950  0.98632275  0.02212714     0.10200
C88         C  0.08486176  0.99038349  0.02093876    -0.17100
C89         C  0.11653722  0.01057851  0.99188805    -0.27500
C90         C  0.09904314  0.02614306  0.96298541     0.18500
C91         C  0.97025773  0.00080001  0.99410995     0.12500
C92         C  0.00380665  0.96422168  0.05367171    -0.11900
H93         H  0.09799812  0.97808908  0.04299541     0.12800
C94         C  0.12988790  0.04516901  0.93028602    -0.22700
H95         H  0.03719337  0.03424543  0.94245315     0.08400
C96         C  0.96553920  0.04161273  0.00699957     0.04700
C97         C  0.91749218  0.03766730  0.00755584    -0.19900
C98         C  0.87381631  0.99401387  0.99512778    -0.12200
C99         C  0.87908509  0.95321189  0.98167803     0.13500
C100        C  0.92732736  0.95726108  0.98155704    -0.22700
C101        C  0.01134900  0.08945874  0.01997965    -0.05700
H102        H  0.91430579  0.06929743  0.01760955     0.15000
C103        C  0.83472321  0.90519254  0.96745341    -0.15900
H104        H  0.93175967  0.92627559  0.97161133     0.09300
H105        H  0.16567633  0.08140814  0.93531755     0.07200
H106        H  0.10886339  0.05261643  0.90974443     0.08400
H107        H  0.13896277  0.01623247  0.92039932     0.08000
H108        H  0.96743172  0.92986802  0.04636525     0.02300
H109        H  0.99542915  0.99267888  0.06529101     0.02800
H110        H  0.02267608  0.95296361  0.07358663     0.06300
H111        H  0.00104116  0.11786625  0.02908713     0.05300
H112        H  0.03970966  0.10709682  0.99889370    -0.00500
H113        H  0.02905193  0.08030222  0.04184681     0.01000
H114        H  0.84636584  0.87763203  0.95866565     0.04600
H115        H  0.81834101  0.91441007  0.94481915     0.06600
H116        H  0.80521648  0.88603324  0.98765424     0.07400
C117        C  0.51766519  0.96179377  0.99199857    -0.22200
C118        C  0.52210461  0.00908604  0.99915012     0.09800
C119        C  0.57000811  0.05087813  0.00755530     0.10200
C120        C  0.61273330  0.04450588  0.00849001    -0.17100
C121        C  0.60895238  0.99724880  0.00105306    -0.27500
C122        C  0.56037283  0.95517427  0.99271184     0.18500
C123        C  0.47582343  0.01380774  0.99832436     0.12500
C124        C  0.57603095  0.10232662  0.01521113    -0.11900
H125        H  0.64950433  0.07705913  0.01467604     0.12800
C126        C  0.55255876  0.90302095  0.98496938    -0.22700
H127        H  0.48043850  0.92990719  0.98577159     0.08400
C128        C  0.45709483  0.02239429  0.96721146     0.04700
C129        C  0.41292058  0.02643056  0.96786116    -0.19900
C130        C  0.38689329  0.02140689  0.99887769    -0.12200
C131        C  0.40652253  0.01404163  0.03017433     0.13500
C132        C  0.45058606  0.00998296  0.02939934    -0.22700
C133        C  0.48354123  0.02687415  0.93340890    -0.05700
H134        H  0.39775099  0.03197828  0.94394242     0.15000
C135        C  0.38306509  0.01175038  0.06493437    -0.15900
H136        H  0.46561958  0.00409558  0.05327359     0.09300
H137        H  0.57354228  0.90430651  0.96117379     0.07200
H138        H  0.51176360  0.87466820  0.98058836     0.08400
H139        H  0.56597155  0.88946680  0.00705534     0.07400
H140        H  0.55252693  0.09962659  0.03794746     0.02300
H141        H  0.56350628  0.11577021  0.99258725     0.02800
H142        H  0.61623315  0.13115255  0.02095519     0.06300
H143        H  0.46403216  0.03376942  0.91155147     0.05300
H144        H  0.48400255  0.99112144  0.92814091    -0.00500
H145        H  0.52331656  0.05909528  0.93460512     0.01000
H146        H  0.36988631  0.97385347  0.07682040     0.04600
H147        H  0.35047650  0.01854860  0.06365729     0.06600
H148        H  0.41207803  0.04150637  0.08203835     0.07400
C149        C  0.90689631  0.14748581  0.81284367    -0.22200
C150        C  0.86279419  0.15059683  0.81781005     0.09800
C151        C  0.85005157  0.17728302  0.79368795     0.10200
C152        C  0.88158998  0.19970555  0.76476240    -0.17100
C153        C  0.92542423  0.19580758  0.75937941    -0.27500
C154        C  0.93762299  0.16836124  0.78358895     0.18500
C155        C  0.83011989  0.12359182  0.84796192     0.12500
C156        C  0.80276597  0.18114128  0.79813718    -0.11900
H157        H  0.87180114  0.22009547  0.74610980     0.12800
C158        C  0.98031705  0.15690682  0.77876145    -0.22700
H159        H  0.91622275  0.12651089  0.83134605     0.08400
C160        C  0.80095571  0.06997704  0.84886828     0.04700
C161        C  0.77759721  0.04540142  0.87985086    -0.19900
C162        C  0.78289641  0.07302527  0.91027805    -0.12200
C163        C  0.80910109  0.12715918  0.90846456     0.13500
C164        C  0.83244984  0.15156261  0.87731577    -0.22700
C165        C  0.79513342  0.03862075  0.81721143    -0.05700
H166        H  0.75687299  0.00415789  0.88051803     0.15000
C167        C  0.81350551  0.15991724  0.93900731    -0.15900
H168        H  0.85450633  0.19277797  0.87620643     0.09300
H169        H  0.96475310  0.11513314  0.78057474     0.07200
H170        H  0.00911339  0.17582122  0.79944536     0.08400
H171        H  0.99949187  0.16865706  0.75345709     0.07400
H172        H  0.80502546  0.20110733  0.82264380     0.02300
H173        H  0.76874412  0.14239479  0.79879180     0.02800
H174        H  0.79793874  0.20265185  0.77666339     0.06300
H175        H  0.76995936  0.99726644  0.82210279     0.05300
H176        H  0.83279479  0.04470315  0.80889280    -0.00500
H177        H  0.77818413  0.04988598  0.79596841     0.01000
H178        H  0.83218740  0.20087367  0.93195359     0.04600
H179        H  0.83698528  0.15620077  0.95952086     0.06600
H180        H  0.77497576  0.14854911  0.94909874     0.07400
C181        C  0.19476900  0.93181549  0.84316620    -0.22200
C182        C  0.16690220  0.87870506  0.84549597     0.09800
C183        C  0.16403369  0.85482590  0.87724390     0.10200
C184        C  0.18704525  0.88484405  0.90656465    -0.17100
C185        C  0.21273219  0.93845286  0.90503311    -0.27500
C186        C  0.21773214  0.96218755  0.87239065     0.18500
C187        C  0.13680476  0.84926028  0.81519726     0.12500
C188        C  0.13542286  0.79764088  0.88028233    -0.11900
H189        H  0.18346518  0.86607898  0.93105981     0.12800
C190        C  0.24556557  0.01922979  0.86779880    -0.22700
H191        H  0.19676643  0.94959441  0.81847843     0.08400
C192        C  0.08741280  0.84132031  0.80951206     0.04700
C193        C  0.06025472  0.81443889  0.78019051    -0.19900
C194        C  0.08140197  0.79559417  0.75613550    -0.12200
C195        C  0.13036091  0.80199131  0.76255991     0.13500
C196        C  0.15769032  0.82940123  0.79185955    -0.22700
C197        C  0.06371460  0.86202628  0.83413968    -0.05700
H198        H  0.02292801  0.80979386  0.77536925     0.15000
C199        C  0.15436355  0.77922034  0.74000033    -0.15900
H200        H  0.19537458  0.83496641  0.79670975     0.09300
H201        H  0.22654429  0.03602870  0.88298865     0.07200
H202        H  0.24591468  0.03030595  0.84041957     0.08400
H203        H  0.28582018  0.03567668  0.87610086     0.07400
H204        H  0.15256369  0.78137132  0.86272782     0.02300
H205        H  0.09488942  0.78238711  0.87311508     0.02800
H206        H  0.13669235  0.78496199  0.90697898     0.06300
H207        H  0.02479106  0.85232188  0.82588739     0.05300
H208        H  0.08743877  0.90414419  0.83546424    -0.00500
H209        H  0.06096291  0.84582138  0.86027448     0.01000
H210        H  0.18911489  0.81015185  0.72758209     0.04600
H211        H  0.12845942  0.75362072  0.71976470     0.06600
H212        H  0.16532071  0.75593402  0.75613676     0.07400
C213        C  0.96661490  0.52127121  0.68284498    -0.22200
C214        C  0.01427041  0.52482378  0.67952551     0.09800
C215        C  0.05797504  0.57274967  0.67426448     0.10200
C216        C  0.05292249  0.61620488  0.67191203    -0.17100
C217        C  0.00508885  0.61302820  0.67468678    -0.27500
C218        C  0.96128475  0.56464778  0.68056175     0.18500
C219        C  0.01677481  0.47728379  0.67896824     0.12500
C220        C  0.10987008  0.57790783  0.67096725    -0.11900
H221        H  0.08672977  0.65296092  0.66787431     0.12800
C222        C  0.90858170  0.55772069  0.68335847    -0.22700
H223        H  0.93326465  0.48406837  0.68663165     0.08400
C224        C  0.01963256  0.45347598  0.70951068     0.04700
C225        C  0.01970213  0.40722359  0.70726106    -0.19900
C226        C  0.01642546  0.38423510  0.67516432    -0.12200
C227        C  0.01540367  0.40921268  0.64455046     0.13500
C228        C  0.01509554  0.45516869  0.64692686    -0.22700
C229        C  0.02214391  0.47668473  0.74431907    -0.05700
H230        H  0.02097777  0.38825250  0.73065298     0.15000
C231        C  0.01621386  0.38955467  0.60894042    -0.15900
H232        H  0.01365922  0.47406959  0.62353082     0.09300
H233        H  0.90610779  0.57808748  0.70640542     0.07200
H234        H  0.87898937  0.51699099  0.68619743     0.08400
H235        H  0.89961664  0.57243011  0.65971270     0.07400
H236        H  0.11052042  0.55556515  0.64848342     0.02300
H237        H  0.11885336  0.56349716  0.69474823     0.02800
H238        H  0.14013829  0.61817504  0.66718448     0.06300
H239        H  0.02437157  0.45326626  0.76556851     0.05300
H240        H  0.98759092  0.47987268  0.74837593    -0.00500
H241        H  0.05639041  0.51520314  0.74571985     0.01000
H242        H  0.98079306  0.38086912  0.59496651     0.04600
H243        H  0.01968941  0.35492260  0.60915207     0.06600
H244        H  0.04941945  0.41918929  0.59439267     0.07400
C245        C  0.95653046  0.01876218  0.66167197    -0.22200
C246        C  0.00267820  0.01914742  0.66529683     0.09800
C247        C  0.04828742  0.06570908  0.66972238     0.10200
C248        C  0.04674746  0.11113030  0.67050481    -0.17100
C249        C  0.00059342  0.11123548  0.66697995    -0.27500
C250        C  0.95472416  0.06416150  0.66253752     0.18500
C251        C  0.00224687  0.97014253  0.66529604     0.12500
C252        C  0.09845325  0.06731506  0.67413472    -0.11900
H253        H  0.08199760  0.14684589  0.67387373     0.12800
C254        C  0.90356875  0.06091141  0.65981252    -0.22700
H255        H  0.92169471  0.98257552  0.65851122     0.08400
C256        C  0.98991266  0.93997601  0.69532750     0.04700
C257        C  0.99009439  0.89384307  0.69421919    -0.19900
C258        C  0.00317162  0.87764896  0.66391330    -0.12200
C259        C  0.01567890  0.90808495  0.63380646     0.13500
C260        C  0.01483272  0.95395720  0.63488360    -0.22700
C261        C  0.97727575  0.95689029  0.72861094    -0.05700
H262        H  0.98075522  0.87064308  0.71730865     0.15000
C263        C  0.02820182  0.89169522  0.60024090    -0.15900
H264        H  0.02409919  0.97744745  0.61194889     0.09300
H265        H  0.89699557  0.07860947  0.68287520     0.07200
H266        H  0.87194700  0.02083377  0.65834929     0.08400
H267        H  0.90195448  0.08052870  0.63606595     0.07400
H268        H  0.10665918  0.05118067  0.65092584     0.02300
H269        H  0.09679443  0.04469467  0.69714920     0.02800
H270        H  0.13043273  0.10683926  0.67772180     0.06300
H271        H  0.96927324  0.92917048  0.74978404     0.05300
H272        H  0.94305787  0.96079626  0.72502413    -0.00500
H273        H  0.00984990  0.99417915  0.73659932     0.01000
H274        H  0.03424082  0.91877500  0.57900332     0.04600
H275        H  0.99633457  0.85371453  0.59270055     0.06600
H276        H  0.06370484  0.88991140  0.60299581     0.07400
C277        C  0.12246372  0.25954263  0.45777398    -0.22200
C278        C  0.15494921  0.29209591  0.48348526     0.09800
C279        C  0.20776132  0.32146245  0.47683619     0.10200
C280        C  0.22699521  0.31640040  0.44495149    -0.17100
C281        C  0.19452351  0.28327645  0.41941464    -0.27500
C282        C  0.14141492  0.25477580  0.42580750     0.18500
C283        C  0.13309694  0.29125898  0.51800930     0.12500
C284        C  0.24371481  0.35827272  0.50328636    -0.11900
H285        H  0.26761164  0.33805479  0.44000389     0.12800
C286        C  0.10369158  0.21715610  0.40036855    -0.22700
H287        H  0.08203917  0.23642938  0.46309527     0.08400
C288        C  0.10025953  0.31104944  0.52356589     0.04700
C289        C  0.07725219  0.30506665  0.55607307    -0.19900
C290        C  0.08648870  0.27997627  0.58320326    -0.12200
C291        C  0.11961382  0.26028218  0.57755340     0.13500
C292        C  0.14267596  0.26661845  0.54514298    -0.22700
C293        C  0.08973375  0.33868709  0.49531408    -0.05700
H294        H  0.05155993  0.31968365  0.56026994     0.15000
C295        C  0.12944659  0.22968211  0.60404726    -0.15900
H296        H  0.16701758  0.25047466  0.54058178     0.09300
H297        H  0.07501522  0.22837270  0.39372970     0.07200
H298        H  0.08384245  0.17860219  0.41216292     0.08400
H299        H  0.12139365  0.21456467  0.37609830     0.07400
H300        H  0.24341200  0.33755152  0.52696761     0.02300
H301        H  0.23184389  0.38644818  0.50992047     0.02800
H302        H  0.28346617  0.37936115  0.49351604     0.06300
H303        H  0.06444772  0.35306771  0.50431908     0.05300
H304        H  0.07077019  0.31271917  0.47322913    -0.00500
H305        H  0.12610437  0.37172744  0.48643603     0.01000
H306        H  0.11874266  0.19175513  0.59313936     0.04600
H307        H  0.10750779  0.22279295  0.62815087     0.06600
H308        H  0.17059940  0.24971479  0.61064282     0.07400
C309        C  0.26228050  0.14874099  0.12156293    -0.22200
C310        C  0.29331862  0.14589857  0.14727002     0.09800
C311        C  0.31865333  0.11829756  0.14079455     0.10200
C312        C  0.31123851  0.09307659  0.10902949    -0.17100
C313        C  0.27965637  0.09544366  0.08348169    -0.27500
C314        C  0.25505868  0.12394269  0.08976542     0.18500
C315        C  0.29425794  0.16786497  0.18174081     0.12500
C316        C  0.35384045  0.11590688  0.16722099    -0.11900
H317        H  0.33018317  0.07142953  0.10409026     0.12800
C318        C  0.21904224  0.12722725  0.06438012    -0.22700
H319        H  0.24213725  0.16917991  0.12679858     0.08400
C320        C  0.31764205  0.22090286  0.18728953     0.04700
C321        C  0.31164296  0.23909363  0.21934819    -0.19900
C322        C  0.28318591  0.20546163  0.24603784    -0.12200
C323        C  0.26063135  0.15224833  0.24057972     0.13500
C324        C  0.26680298  0.13436887  0.20860345    -0.22700
C325        C  0.34898639  0.25819066  0.15946948    -0.05700
H326        H  0.32877332  0.27974943  0.22350952     0.15000
C327        C  0.22719562  0.11272955  0.26678077    -0.15900
H328        H  0.24813751  0.09365352  0.20407026     0.09300
H329        H  0.23393277  0.16760144  0.05693086     0.07200
H330        H  0.18111195  0.11252527  0.07663093     0.08400
H331        H  0.21333028  0.10487294  0.04057653     0.07400
H332        H  0.33243661  0.09706295  0.19107032     0.02300
H333        H  0.38462806  0.15507567  0.17352789     0.02800
H334        H  0.37177251  0.09406174  0.15758557     0.06300
H335        H  0.36580967  0.29820548  0.16840748     0.05300
H336        H  0.32491003  0.25328103  0.13660918    -0.00500
H337        H  0.38057106  0.25169233  0.15178035     0.01000
H338        H  0.18915992  0.08733997  0.25526514     0.04600
H339        H  0.22084975  0.12886219  0.29055259     0.06600
H340        H  0.24461126  0.08939586  0.27409500     0.07400
C341        C  0.81522229  0.73690915  0.49037860    -0.22200
C342        C  0.83919822  0.70778359  0.48830426     0.09800
C343        C  0.83698705  0.68263333  0.45725607     0.10200
C344        C  0.81260558  0.68898379  0.42837380    -0.17100
C345        C  0.79035417  0.72015836  0.42964246    -0.27500
C346        C  0.79085911  0.74358702  0.46161681     0.18500
C347        C  0.86960426  0.70754191  0.51827875     0.12500
C348        C  0.86142490  0.65006078  0.45446272    -0.11900
H349        H  0.81216981  0.67041595  0.40439014     0.12800
C350        C  0.76751884  0.77704594  0.46586347    -0.22700
H351        H  0.81709674  0.75591125  0.51448820     0.08400
C352        C  0.92053935  0.74664633  0.52267575     0.04700
C353        C  0.94724384  0.74713190  0.55237253    -0.19900
C354        C  0.92419547  0.70974122  0.57814456    -0.12200
C355        C  0.87382773  0.66898819  0.57279002     0.13500
C356        C  0.84699394  0.66888186  0.54310467    -0.22700
C357        C  0.94636757  0.78852718  0.49633419    -0.05700
H358        H  0.98579361  0.77827274  0.55613030     0.15000
C359        C  0.84761337  0.62428442  0.59701245    -0.15900
H360        H  0.80812338  0.63838647  0.53926955     0.09300
H361        H  0.78672943  0.81058041  0.44850894     0.07200
H362        H  0.77160944  0.79165776  0.49264950     0.08400
H363        H  0.72615293  0.75495932  0.46001722     0.07400
H364        H  0.84393389  0.61856171  0.47354003     0.02300
H365        H  0.90288474  0.67340167  0.45971386     0.02800
H366        H  0.85639704  0.63310073  0.42834765     0.06300
H367        H  0.98629062  0.81611560  0.50371515     0.05300
H368        H  0.92542779  0.80970859  0.49383862    -0.00500
H369        H  0.94698309  0.77196350  0.47091695     0.01000
H370        H  0.81416016  0.62394896  0.60895811     0.04600
H371        H  0.87286555  0.62431590  0.61764524     0.06600
H372        H  0.83426899  0.58840957  0.58226979     0.07400
C373        C  0.97446791  0.93460916  0.33685611    -0.22200
C374        C  0.97351817  0.98027505  0.33587021     0.09800
C375        C  0.92655045  0.97925019  0.33706675     0.10200
C376        C  0.88130666  0.93225044  0.33924667    -0.17100
C377        C  0.88188997  0.88619183  0.33978237    -0.27500
C378        C  0.92929760  0.88747203  0.33894247     0.18500
C379        C  0.02241959  0.02883230  0.33475372     0.12500
C380        C  0.92423345  0.02773551  0.33645794    -0.11900
H381        H  0.84522958  0.93153417  0.34010087     0.12800
C382        C  0.93300368  0.83978727  0.34143414    -0.22700
H383        H  0.01091372  0.93602436  0.33621321     0.08400
C384        C  0.05334317  0.04796427  0.36435926     0.04700
C385        C  0.09960584  0.09388920  0.36213876    -0.19900
C386        C  0.11524363  0.12158036  0.33117511    -0.12200
C387        C  0.08402858  0.10246777  0.30149324     0.13500
C388        C  0.03806618  0.05598060  0.30364780    -0.22700
C389        C  0.03705385  0.02043648  0.39844230    -0.05700
H390        H  0.12331724  0.10877560  0.38492829     0.15000
C391        C  0.09941093  0.12996363  0.26735114    -0.15900
H392        H  0.01405821  0.04068506  0.28102561     0.09300
H393        H  0.91309451  0.81816089  0.36502940     0.07200
H394        H  0.97320189  0.84859969  0.34295616     0.08400
H395        H  0.91588389  0.81571132  0.31825581     0.07400
H396        H  0.94080053  0.04858680  0.31200569     0.02300
H397        H  0.94603752  0.05220299  0.35859469     0.02800
H398        H  0.88444524  0.02009244  0.33826794     0.06300
H399        H  0.06512358  0.04146150  0.41917899     0.05300
H400        H  0.03324818  0.98221026  0.39615807    -0.00500
H401        H  0.99987114  0.01614997  0.40627775     0.01000
H402        H  0.07179986  0.10793305  0.24660653     0.04600
H403        H  0.13731172  0.13611128  0.25951947     0.06600
H404        H  0.10093856  0.16719221  0.26944253     0.07400
C405        C  0.47350319  0.43838535  0.34022945    -0.22200
C406        C  0.47103510  0.48315447  0.33788792     0.09800
C407        C  0.42343256  0.48025198  0.33409047     0.10200
C408        C  0.37900293  0.43233563  0.33327905    -0.17100
C409        C  0.38097333  0.38706095  0.33598800    -0.27500
C410        C  0.42918344  0.39028659  0.33925195     0.18500
C411        C  0.51905907  0.53271696  0.33846462     0.12500
C412        C  0.41965589  0.52774639  0.33057064    -0.11900
H413        H  0.34243779  0.43032071  0.33064098     0.12800
C414        C  0.43477395  0.34362035  0.34063145    -0.22700
H415        H  0.51047879  0.44123021  0.34267086     0.08400
C416        C  0.53966194  0.55940121  0.36953852     0.04700
C417        C  0.58534239  0.60631856  0.36863707    -0.19900
C418        C  0.61124545  0.62651115  0.33744139    -0.12200
C419        C  0.59013032  0.59984461  0.30623116     0.13500
C420        C  0.54442728  0.55308811  0.30725252    -0.22700
C421        C  0.51390324  0.53785839  0.40361398    -0.05700
H422        H  0.60166926  0.62668207  0.39249609     0.15000
C423        C  0.61352950  0.62004468  0.27128998    -0.15900
H424        H  0.52813918  0.53250850  0.28344505     0.09300
H425        H  0.41675118  0.32152761  0.36442807     0.07200
H426        H  0.47539843  0.35368268  0.34104090     0.08400
H427        H  0.41680083  0.31957178  0.31752007     0.07400
H428        H  0.44117554  0.54947974  0.30744102     0.02300
H429        H  0.43581619  0.55202117  0.35379244     0.02800
H430        H  0.37953881  0.51873651  0.32769114     0.06300
H431        H  0.53525023  0.56341048  0.42544760     0.05300
H432        H  0.51133693  0.50047900  0.40812289    -0.00500
H433        H  0.47494797  0.53257953  0.40347091     0.01000
H434        H  0.62478602  0.59385711  0.25933749     0.04600
H435        H  0.64731844  0.65870691  0.27223425     0.06600
H436        H  0.58509496  0.62223748  0.25438172     0.07400
C437        C  0.73512059  0.87897725  0.21448215    -0.22200
C438        C  0.70949341  0.84599788  0.18694749     0.09800
C439        C  0.68834326  0.79295032  0.19168593     0.10200
C440        C  0.69419278  0.77435678  0.22363543    -0.17100
C441        C  0.71993372  0.80740922  0.25116499    -0.27500
C442        C  0.74058527  0.86055906  0.24650392     0.18500
C443        C  0.70872461  0.86836684  0.15284103     0.12500
C444        C  0.65894471  0.75585239  0.16327484    -0.11900
H445        H  0.67848136  0.73375835  0.22719786     0.12800
C446        C  0.77079928  0.89947852  0.27388053    -0.22700
H447        H  0.75237637  0.91972769  0.21064200     0.08400
C448        C  0.68207545  0.89500614  0.14741262     0.04700
C449        C  0.68577966  0.91830620  0.11525843    -0.19900
C450        C  0.71489742  0.91500901  0.08828405    -0.12200
C451        C  0.74126357  0.88798910  0.09371240     0.13500
C452        C  0.73787317  0.86524236  0.12587971    -0.22700
C453        C  0.64929226  0.89839353  0.17531219    -0.05700
H454        H  0.66599150  0.93935868  0.11114870     0.15000
C455        C  0.77528578  0.88417294  0.06692070    -0.15900
H456        H  0.75930335  0.84588562  0.13026019     0.09300
H457        H  0.75125627  0.92099232  0.28069772     0.07200
H458        H  0.80934088  0.92659647  0.26377917     0.08400
H459        H  0.77609220  0.88276726  0.29775173     0.07400
H460        H  0.68404759  0.76210113  0.14079790     0.02300
H461        H  0.62668054  0.76100806  0.15514406     0.02800
H462        H  0.64317526  0.71577595  0.17182770     0.06300
H463        H  0.62956114  0.91881293  0.16627028     0.05300
H464        H  0.67293963  0.91930660  0.19792862    -0.00500
H465        H  0.61989037  0.85948446  0.18340157     0.01000
H466        H  0.81453273  0.90070484  0.07734510     0.04600
H467        H  0.77773046  0.90463124  0.04277745     0.06600
H468        H  0.76080558  0.84353028  0.06048535     0.07400
loop_ 
_geom_bond_atom_site_label_1 
_geom_bond_atom_site_label_2 
_geom_bond_distance 
_geom_bond_site_symmetry_2 
_ccdc_geom_bond_type 
O1            V9   1.903       .  S
O1           C11   1.265       .  A
O2            V9   1.900       .  S
O2           C12   1.265       .  A
O3            V9   1.902       .  S
O3           C13   1.264       .  A
O4            V9   1.900       .  S
O4           C14   1.264       .  A
O5           V10   1.906       .  S
O5           C14   1.267       .  A
O6           V10   1.905       .  S
O6           C13   1.265       .  A
O7           V10   1.893       .  S
O7           C12   1.262       .  A
O8           V10   1.896       .  S
O8           C11   1.263       .  A
V9           V10   2.085       .  T
C11         C418   1.475       .  S
C12         C377   1.481       .  S
C13         C441   1.480       .  S
C14         C345   1.498       .  S
O15          V23   1.901       .  S
O15          C25   1.266       .  A
O16          V23   1.897       .  S
O16          C26   1.263       .  A
O17          V23   1.905       .  S
O17          C27   1.265       .  A
O18          V23   1.903       .  S
O18          C28   1.265       .  A
O19          V24   1.903       .  S
O19          C28   1.265       .  A
O20          V24   1.902       .  S
O20          C27   1.264       .  A
O21          V24   1.896       .  S
O21          C26   1.264       .  A
O22          V24   1.899       .  S
O22          C25   1.264       .  A
V23          V24   2.085       .  T
C25         C409   1.488       .  S
C26         C386   1.476       .  S
C27         C281   1.477       .  S
C28         C322   1.479       .  S
O29          V37   1.901       .  S
O29          C39   1.264   1_655  A
O30          V37   1.898       .  S
O30          C40   1.264   1_655  A
O31          V37   1.904       .  S
O31          C41   1.265       .  A
O32          V37   1.900   1_455  S
O32          C42   1.265       .  A
O33          V38   1.900       .  S
O33          C42   1.264       .  A
O34          V38   1.900       .  S
O34          C41   1.265   1_455  A
O35          V38   1.899       .  S
O35          C40   1.264       .  A
O36          V38   1.901       .  S
O36          C39   1.266       .  A
V37          V38   2.085   1_655  T
C39         C217   1.490       .  S
C40         C258   1.478       .  S
C41         C354   1.486       .  S
C42         C194   1.481       .  S
O43          V51   1.901       .  S
O43          C53   1.263       .  A
O44          V51   1.896       .  S
O44          C54   1.265       .  A
O45          V51   1.904       .  S
O45          C55   1.265       .  A
O46          V51   1.902       .  S
O46          C56   1.265   1_455  A
O47          V52   1.902       .  S
O47          C56   1.264       .  A
O48          V52   1.900   1_455  S
O48          C55   1.264       .  A
O49          V52   1.901       .  S
O49          C54   1.264   1_655  A
O50          V52   1.900       .  S
O50          C53   1.265   1_655  A
V51          V52   2.087   1_455  T
C53         C226   1.475       .  S
C54         C249   1.486       .  S
C55         C290   1.480       .  S
C56         C153   1.482       .  S
O57          V65   1.901       .  S
O57          C67   1.264   1_556  A
O58          V65   1.898       .  S
O58          C68   1.263       .  A
O59          V65   1.907   1_554  S
O59          C69   1.266       .  A
O60          V65   1.904       .  S
O60          C70   1.267   1_565  A
O61          V66   1.900   1_556  S
O61          C70   1.264       .  A
O62          V66   1.902   1_565  S
O62          C69   1.264       .  A
O63          V66   1.898       .  S
O63          C68   1.266   1_544  A
O64          V66   1.898       .  S
O64          C67   1.265   1_545  A
V65          V66   2.083   1_566  T
C67         C121   1.492       .  S
C68          C98   1.490       .  S
C69         C450   1.479       .  S
C70         C162   1.495       .  S
O71          V79   1.893       .  S
O71          C81   1.262   1_564  A
O72          V79   1.893       .  S
O72          C82   1.263   1_564  A
O73          V79   1.906   1_556  S
O73          C83   1.268       .  A
O74          V79   1.905   1_545  S
O74          C84   1.265       .  A
O75          V80   1.900   1_554  S
O75          C84   1.264       .  A
O76          V80   1.895       .  S
O76          C83   1.263   1_545  A
O77          V80   1.902       .  S
O77          C82   1.265       .  A
O78          V80   1.905       .  S
O78          C81   1.265       .  A
V79          V80   2.086   1_564  T
C81         C130   1.474       .  S
C82          C89   1.479       .  S
C83         C185   1.495       .  S
C84         C313   1.476       .  S
C85          C86   1.400       .  A
C85          C90   1.404       .  A
C85          H95   1.084       .  S
C86          C91   1.477   1_455  S
C86          C87   1.409   1_546  A
C87          C88   1.401       .  A
C87          C92   1.507       .  S
C88          C89   1.406   1_564  A
C88          H93   1.084       .  S
C89          C90   1.417       .  A
C90          C94   1.507       .  S
C91          C96   1.407   1_556  A
C91         C100   1.398   1_545  A
C92         H108   1.110   1_455  S
C92         H109   1.110   1_455  S
C92         H110   1.111       .  S
C94         H105   1.109       .  S
C94         H106   1.111       .  S
C94         H107   1.111       .  S
C96          C97   1.401       .  A
C96         C101   1.507   1_655  S
C97          C98   1.409   1_544  A
C97         H102   1.083       .  S
C98          C99   1.423       .  A
C99         C100   1.405       .  A
C99         C103   1.508       .  S
C100        H104   1.084       .  S
C101        H111   1.111       .  S
C101        H112   1.110   1_554  S
C101        H113   1.110       .  S
C103        H114   1.111       .  S
C103        H115   1.110       .  S
C103        H116   1.109       .  S
C117        C118   1.399   1_565  A
C117        C122   1.406       .  A
C117        H127   1.084       .  S
C118        C123   1.480       .  S
C118        C119   1.407   1_556  A
C119        C120   1.402       .  A
C119        C124   1.507       .  S
C120        C121   1.409   1_545  A
C120        H125   1.084       .  S
C121        C122   1.422   1_554  A
C122        C126   1.508       .  S
C123        C128   1.411       .  A
C123        C132   1.400   1_556  A
C124        H140   1.110       .  S
C124        H141   1.110   1_554  S
C124        H142   1.111       .  S
C126        H137   1.110       .  S
C126        H138   1.111       .  S
C126        H139   1.110   1_556  S
C128        C129   1.404       .  A
C128        C133   1.506       .  S
C129        C130   1.403       .  A
C129        H134   1.084       .  S
C130        C131   1.416   1_556  A
C131        C132   1.402       .  A
C131        C135   1.508       .  S
C132        H136   1.084       .  S
C133        H143   1.111       .  S
C133        H144   1.110   1_545  S
C133        H145   1.110       .  S
C135        H146   1.110   1_545  S
C135        H147   1.107       .  S
C135        H148   1.111       .  S
C149        C150   1.400       .  A
C149        C154   1.401       .  A
C149        H159   1.085       .  S
C150        C155   1.485       .  S
C150        C151   1.410       .  A
C151        C152   1.408       .  A
C151        C156   1.505       .  S
C152        C153   1.407       .  A
C152        H157   1.084       .  S
C153        C154   1.420       .  A
C154        C158   1.510       .  S
C155        C160   1.410       .  A
C155        C164   1.400       .  A
C156        H172   1.110       .  S
C156        H173   1.110       .  S
C156        H174   1.111       .  S
C158        H169   1.111       .  S
C158        H170   1.110   1_655  S
C158        H171   1.104       .  S
C160        C161   1.403       .  A
C160        C165   1.508       .  S
C161        C162   1.408       .  A
C161        H166   1.083       .  S
C162        C163   1.423       .  A
C163        C164   1.407       .  A
C163        C167   1.508       .  S
C164        H168   1.084       .  S
C165        H175   1.111   1_545  S
C165        H176   1.109       .  S
C165        H177   1.110       .  S
C167        H178   1.111       .  S
C167        H179   1.109       .  S
C167        H180   1.111       .  S
C181        C182   1.398       .  A
C181        C186   1.405       .  A
C181        H191   1.084       .  S
C182        C187   1.481       .  S
C182        C183   1.407       .  A
C183        C184   1.404       .  A
C183        C188   1.506       .  S
C184        C185   1.409       .  A
C184        H189   1.083       .  S
C185        C186   1.425       .  A
C186        C190   1.508   1_565  S
C187        C192   1.410       .  A
C187        C196   1.401       .  A
C188        H204   1.110       .  S
C188        H205   1.110       .  S
C188        H206   1.111       .  S
C190        H201   1.110       .  S
C190        H202   1.111       .  S
C190        H203   1.110       .  S
C192        C193   1.401       .  A
C192        C197   1.507       .  S
C193        C194   1.405       .  A
C193        H198   1.084       .  S
C194        C195   1.419       .  A
C195        C196   1.406       .  A
C195        C199   1.508       .  S
C196        H200   1.084       .  S
C197        H207   1.111       .  S
C197        H208   1.110       .  S
C197        H209   1.110       .  S
C199        H210   1.110       .  S
C199        H211   1.107       .  S
C199        H212   1.111       .  S
C213        C214   1.400   1_655  A
C213        C218   1.406       .  A
C213        H223   1.084       .  S
C214        C219   1.481       .  S
C214        C215   1.408       .  A
C215        C216   1.403       .  A
C215        C220   1.506       .  S
C216        C217   1.408       .  A
C216        H221   1.084       .  S
C217        C218   1.421   1_455  A
C218        C222   1.508       .  S
C219        C224   1.411       .  A
C219        C228   1.400       .  A
C220        H236   1.110       .  S
C220        H237   1.110       .  S
C220        H238   1.111       .  S
C222        H233   1.110       .  S
C222        H234   1.111       .  S
C222        H235   1.110       .  S
C224        C225   1.406       .  A
C224        C229   1.506       .  S
C225        C226   1.405       .  A
C225        H230   1.084       .  S
C226        C227   1.416       .  A
C227        C228   1.401       .  A
C227        C231   1.508       .  S
C228        H232   1.085       .  S
C229        H239   1.111       .  S
C229        H240   1.110   1_455  S
C229        H241   1.110       .  S
C231        H242   1.110   1_455  S
C231        H243   1.107       .  S
C231        H244   1.111       .  S
C245        C246   1.400   1_655  A
C245        C250   1.405       .  A
C245        H255   1.084   1_545  S
C246        C251   1.479   1_545  S
C246        C247   1.408       .  A
C247        C248   1.401       .  A
C247        C252   1.507       .  S
C248        C249   1.407       .  A
C248        H253   1.084       .  S
C249        C250   1.420   1_455  A
C250        C254   1.507       .  S
C251        C256   1.410   1_455  A
C251        C260   1.401       .  A
C252        H268   1.110       .  S
C252        H269   1.110       .  S
C252        H270   1.111       .  S
C254        H265   1.111       .  S
C254        H266   1.111       .  S
C254        H267   1.110       .  S
C256        C257   1.402       .  A
C256        C261   1.507       .  S
C257        C258   1.404   1_655  A
C257        H262   1.084       .  S
C258        C259   1.416       .  A
C259        C260   1.405       .  A
C259        C263   1.507       .  S
C260        H264   1.084       .  S
C261        H271   1.111       .  S
C261        H272   1.110       .  S
C261        H273   1.110   1_655  S
C263        H274   1.111       .  S
C263        H275   1.110   1_455  S
C263        H276   1.109       .  S
C277        C278   1.402       .  A
C277        C282   1.403       .  A
C277        H287   1.085       .  S
C278        C283   1.487       .  S
C278        C279   1.413       .  A
C279        C280   1.407       .  A
C279        C284   1.506       .  S
C280        C281   1.403       .  A
C280        H285   1.084       .  S
C281        C282   1.417       .  A
C282        C286   1.509       .  S
C283        C288   1.412       .  A
C283        C292   1.401       .  A
C284        H300   1.109       .  S
C284        H301   1.110       .  S
C284        H302   1.111       .  S
C286        H297   1.110       .  S
C286        H298   1.111       .  S
C286        H299   1.105       .  S
C288        C289   1.407       .  A
C288        C293   1.506       .  S
C289        C290   1.405       .  A
C289        H294   1.084       .  S
C290        C291   1.419       .  A
C291        C292   1.403       .  A
C291        C295   1.510       .  S
C292        H296   1.085       .  S
C293        H303   1.111       .  S
C293        H304   1.109       .  S
C293        H305   1.110       .  S
C295        H306   1.111       .  S
C295        H307   1.104       .  S
C295        H308   1.110       .  S
C309        C310   1.402       .  A
C309        C314   1.403       .  A
C309        H319   1.085       .  S
C310        C315   1.487       .  S
C310        C311   1.413       .  A
C311        C312   1.407       .  A
C311        C316   1.506       .  S
C312        C313   1.403       .  A
C312        H317   1.084       .  S
C313        C314   1.417       .  A
C314        C318   1.509       .  S
C315        C320   1.413       .  A
C315        C324   1.400       .  A
C316        H332   1.109       .  S
C316        H333   1.110       .  S
C316        H334   1.111       .  S
C318        H329   1.110       .  S
C318        H330   1.111       .  S
C318        H331   1.106       .  S
C320        C321   1.408       .  A
C320        C325   1.506       .  S
C321        C322   1.405       .  A
C321        H326   1.084       .  S
C322        C323   1.419       .  A
C323        C324   1.402       .  A
C323        C327   1.509       .  S
C324        H328   1.085       .  S
C325        H335   1.111       .  S
C325        H336   1.109       .  S
C325        H337   1.110       .  S
C327        H338   1.111       .  S
C327        H339   1.104       .  S
C327        H340   1.110       .  S
C341        C342   1.399       .  A
C341        C346   1.406       .  A
C341        H351   1.084       .  S
C342        C347   1.485       .  S
C342        C343   1.408       .  A
C343        C344   1.406       .  A
C343        C348   1.506       .  S
C344        C345   1.410       .  A
C344        H349   1.083       .  S
C345        C346   1.425       .  A
C346        C350   1.508       .  S
C347        C352   1.410       .  A
C347        C356   1.402       .  A
C348        H364   1.110       .  S
C348        H365   1.110       .  S
C348        H366   1.111       .  S
C350        H361   1.110       .  S
C350        H362   1.111       .  S
C350        H363   1.110       .  S
C352        C353   1.402       .  A
C352        C357   1.507       .  S
C353        C354   1.406       .  A
C353        H358   1.084       .  S
C354        C355   1.419       .  A
C355        C356   1.408       .  A
C355        C359   1.507       .  S
C356        H360   1.084       .  S
C357        H367   1.111       .  S
C357        H368   1.110       .  S
C357        H369   1.110       .  S
C359        H370   1.110       .  S
C359        H371   1.106       .  S
C359        H372   1.111       .  S
C373        C374   1.400       .  A
C373        C378   1.403       .  A
C373        H383   1.084   1_655  S
C374        C379   1.478   1_665  S
C374        C375   1.409       .  A
C375        C376   1.402       .  A
C375        C380   1.507   1_565  S
C376        C377   1.406       .  A
C376        H381   1.083       .  S
C377        C378   1.418       .  A
C378        C382   1.508       .  S
C379        C384   1.410       .  A
C379        C388   1.401       .  A
C380        H396   1.110       .  S
C380        H397   1.110       .  S
C380        H398   1.111       .  S
C382        H393   1.111       .  S
C382        H394   1.111       .  S
C382        H395   1.109       .  S
C384        C385   1.400       .  A
C384        C389   1.507       .  S
C385        C386   1.404       .  A
C385        H390   1.084       .  S
C386        C387   1.416       .  A
C387        C388   1.404       .  A
C387        C391   1.508       .  S
C388        H392   1.084       .  S
C389        H399   1.111       .  S
C389        H400   1.109   1_545  S
C389        H401   1.110   1_455  S
C391        H402   1.111       .  S
C391        H403   1.110       .  S
C391        H404   1.109       .  S
C405        C406   1.399       .  A
C405        C410   1.405       .  A
C405        H415   1.084       .  S
C406        C411   1.480       .  S
C406        C407   1.409       .  A
C407        C408   1.403       .  A
C407        C412   1.507       .  S
C408        C409   1.407       .  A
C408        H413   1.084       .  S
C409        C410   1.421       .  A
C410        C414   1.508       .  S
C411        C416   1.410       .  A
C411        C420   1.400       .  A
C412        H428   1.110       .  S
C412        H429   1.110       .  S
C412        H430   1.111       .  S
C414        H425   1.109       .  S
C414        H426   1.111       .  S
C414        H427   1.111       .  S
C416        C417   1.405       .  A
C416        C421   1.506       .  S
C417        C418   1.404       .  A
C417        H422   1.084       .  S
C418        C419   1.417       .  A
C419        C420   1.402       .  A
C419        C423   1.509       .  S
C420        H424   1.085       .  S
C421        H431   1.111       .  S
C421        H432   1.110       .  S
C421        H433   1.110       .  S
C423        H434   1.110       .  S
C423        H435   1.106       .  S
C423        H436   1.111       .  S
C437        C438   1.402       .  A
C437        C442   1.404       .  A
C437        H447   1.084       .  S
C438        C443   1.490       .  S
C438        C439   1.414       .  A
C439        C440   1.407       .  A
C439        C444   1.507       .  S
C440        C441   1.403       .  A
C440        H445   1.084       .  S
C441        C442   1.419       .  A
C442        C446   1.509       .  S
C443        C448   1.415       .  A
C443        C452   1.402       .  A
C444        H460   1.109       .  S
C444        H461   1.110       .  S
C444        H462   1.111       .  S
C446        H457   1.110       .  S
C446        H458   1.111       .  S
C446        H459   1.104       .  S
C448        C449   1.408       .  A
C448        C453   1.506       .  S
C449        C450   1.404       .  A
C449        H454   1.084       .  S
C450        C451   1.417       .  A
C451        C452   1.403       .  A
C451        C455   1.508       .  S
C452        H456   1.085       .  S
C453        H463   1.111       .  S
C453        H464   1.109       .  S
C453        H465   1.110       .  S
C455        H466   1.111       .  S
C455        H467   1.104       .  S
C455        H468   1.110       .  S
