geometry optimzed in LAMMPS
_audit_creation_date              2020-12-01 
_audit_creation_method            'lammps2cif' 
_symmetry_space_group_name_H-M    'P1' 
_symmetry_Int_Tables_number       1 
_symmetry_cell_setting            triclinic 
loop_ 
_symmetry_equiv_pos_as_xyz 
  x,y,z 
_cell_length_a                    42.49698539 
_cell_length_b                    42.525920731470215 
_cell_length_c                    42.55401473105685 
_cell_angle_alpha                 90.00229185003724 
_cell_angle_beta                  89.81522629431635 
_cell_angle_gamma                 90.04925146963988 
loop_ 
_atom_site_label 
_atom_site_type_symbol 
_atom_site_fract_x 
_atom_site_fract_y 
_atom_site_fract_z 
_atom_site_charge 
C1          C  0.10464126  0.68789735  0.93868281     0.80500
N2          N  0.08591076  0.67098798  0.95878822    -0.77800
C3          C  0.05480657  0.66590248  0.95185663     0.83000
N4          N  0.04310155  0.67684799  0.92407330    -0.77700
C5          C  0.06198806  0.69340300  0.90405570     0.83100
N6          N  0.09226393  0.69867233  0.91158154    -0.79500
C7          C  0.85422276  0.69793808  0.94064449     0.80500
N8          N  0.86365390  0.70558144  0.91132531    -0.77800
C9          C  0.89083012  0.69419597  0.89938027     0.83000
N10         N  0.90951117  0.67539935  0.91748252    -0.77700
C11         C  0.90102849  0.66856242  0.94773454     0.83100
N12         N  0.87282109  0.67924304  0.95891994    -0.79500
C13         C  0.89572716  0.70123876  0.14906565     0.80500
N14         N  0.91228319  0.68125653  0.13011158    -0.77800
C15         C  0.90073321  0.67296155  0.10135939     0.83000
N16         N  0.87159103  0.68329875  0.09275722    -0.77700
C17         C  0.85519171  0.70325889  0.11188004     0.83100
N18         N  0.86755801  0.71228466  0.13961153    -0.79500
C19         C  0.05322343  0.69896743  0.15451709     0.80500
N20         N  0.03721133  0.67644513  0.13804079    -0.77800
C21         C  0.04022746  0.67483566  0.10594644     0.83000
N22         N  0.05993748  0.69527321  0.09086657    -0.77700
C23         C  0.07658734  0.71686045  0.10765659     0.83100
N24         N  0.07280171  0.71844900  0.13899283    -0.79500
C25         C  0.88805410  0.43205939  0.14729357     0.80500
N26         N  0.90591314  0.45122619  0.12871901    -0.77800
C27         C  0.89392165  0.46305021  0.10148248     0.83000
N28         N  0.86334445  0.45661487  0.09386916    -0.77700
C29         C  0.84568235  0.43710888  0.11243991     0.83100
N30         N  0.85833538  0.42486109  0.13881625    -0.79500
C31         C  0.85150623  0.43274010  0.94852309     0.80500
N32         N  0.87016323  0.45213420  0.96600899    -0.77800
C33         C  0.89941637  0.46027650  0.95529851     0.83000
N34         N  0.90884318  0.45033337  0.92623169    -0.77700
C35         C  0.88996816  0.43090611  0.90905675     0.83100
N36         N  0.86173123  0.42214990  0.92049222    -0.79500
C37         C  0.10130182  0.43403734  0.94842352     0.80500
N38         N  0.08345739  0.45320555  0.96707941    -0.77800
C39         C  0.05285789  0.45936941  0.95934936     0.83000
N40         N  0.04119681  0.44779190  0.93177412    -0.77700
C41         C  0.05932986  0.42873391  0.91329132     0.83100
N42         N  0.08893276  0.42181185  0.92201368    -0.79500
C43         C  0.05919789  0.43612740  0.15334361     0.80500
N44         N  0.08669399  0.42570931  0.14141878    -0.77800
C45         C  0.09651213  0.43487772  0.11270530     0.83000
N46         N  0.07810668  0.45434620  0.09503506    -0.77700
C47         C  0.04955443  0.46408793  0.10627263     0.83100
N48         N  0.04060135  0.45555680  0.13590935    -0.79500
O49         O  0.04289128  0.61464779  0.96784404    -0.75000
O50         O  0.01315940  0.65415186  0.98925924    -0.53900
C51         C  0.03566105  0.64376741  0.97120291     0.78700
O52         O  0.91423747  0.51261176  0.96382873    -0.59600
O53         O  0.93742808  0.47498904  0.99452801    -0.52600
C54         C  0.91839438  0.48394777  0.97248014     0.70700
O55         O  0.91516353  0.61653119  0.95967917    -0.74200
O56         O  0.93866201  0.65567268  0.98811505    -0.54700
C57         C  0.91971392  0.64567223  0.96641392     0.76700
O58         O  0.04331364  0.51180722  0.97328777    -0.59300
O59         O  0.01113172  0.47447116  0.99507952    -0.52400
C60         C  0.03458584  0.48315405  0.97741287     0.73300
Zr61       Zr  0.02451473  0.56410474  0.98704781     2.54700
O62         O  0.02934750  0.55973043  0.93021029    -0.79900
O63         O  0.08050446  0.56470056  0.99911089    -0.93300
Zr64       Zr  0.93232230  0.56500117  0.97827561     2.64700
O65         O  0.94211321  0.56477294  0.92184725    -0.98200
O66         O  0.87529212  0.56470856  0.97322113    -0.80300
O67         O  0.97883445  0.59577244  0.98066461    -0.83700
O68         O  0.97810018  0.53328970  0.98295109    -2.18400
O69         O  0.03464941  0.51623441  0.09552910    -0.67000
O70         O  0.01093837  0.47709211  0.06712117    -0.51600
C71         C  0.03039858  0.48712305  0.08834026     0.71700
O72         O  0.90936629  0.62011004  0.08772226    -0.60000
O73         O  0.93839743  0.65754141  0.06188953    -0.51900
C74         C  0.91726732  0.64883167  0.08219627     0.73500
O75         O  0.90409576  0.51517217  0.08560595    -0.71400
O76         O  0.93628070  0.47652215  0.06627021    -0.50000
C77         C  0.91254827  0.48620140  0.08290864     0.74900
O78         O  0.02775452  0.62125324  0.09731477    -0.66700
O79         O  0.00827865  0.65779954  0.06295331    -0.53900
C80         C  0.02410246  0.64977992  0.08766007     0.73300
Zr81       Zr  0.01573465  0.56788361  0.07876095     2.77500
O82         O  0.00815304  0.56762772  0.13554879    -0.97400
O83         O  0.07290049  0.57149145  0.07984777    -0.78300
Zr84       Zr  0.92361262  0.56722372  0.07019465     2.70100
O85         O  0.91835839  0.56645137  0.12719421    -0.79500
O86         O  0.86728332  0.57011235  0.06028260    -0.98600
Zr87       Zr  0.97435432  0.62901659  0.02580682     2.21500
Zr88       Zr  0.97392115  0.50300270  0.03031571     2.11100
O89         O  0.96970715  0.53612412  0.07599544    -2.47300
O90         O  0.96968842  0.59863896  0.07310493    -0.79300
O91         O  0.02023014  0.53469807  0.03403761    -0.71500
O92         O  0.92755218  0.59744392  0.02338882    -2.32400
O93         O  0.02060920  0.59739427  0.03163649    -2.28700
O94         O  0.92774079  0.53487148  0.02506947    -0.73200
H95         H  0.97956800  0.51963850  0.96489278     0.78800
H96         H  0.90911278  0.61059425  0.02177464     0.79800
H97         H  0.96812464  0.52355264  0.09475855     0.82100
H98         H  0.03903129  0.61061166  0.03282877     0.79700
H99         H  0.86772242  0.57907549  0.98991139     0.42700
H100        H  0.86276918  0.55176687  0.04668957     0.41700
H101        H  0.93456702  0.58135692  0.13475752     0.41400
H102        H  0.99895193  0.54678713  0.14041511     0.39300
H103        H  0.08027771  0.55291482  0.06789293     0.42400
H104        H  0.08489810  0.58620609  0.00686752     0.37200
H105        H  0.01303089  0.57406338  0.92188103     0.43300
H106        H  0.95322305  0.54474367  0.91769062     0.39700
H107        H  0.02971607  0.56672217  0.14424677     0.44700
H108        H  0.09104782  0.56372937  0.97835767     0.43400
H109        H  0.92105875  0.56186434  0.91237639     0.43500
H110        H  0.85738140  0.56480982  0.08070369     0.43900
C111        C  0.60277446  0.98125120  0.15051173     0.80500
N112        N  0.58401957  0.00052745  0.13299377    -0.77800
C113        C  0.57499586  0.99164764  0.10345883     0.83000
N114        N  0.58362535  0.96267452  0.09247044    -0.77700
C115        C  0.60224044  0.94358025  0.11029888     0.83100
N116        N  0.61185037  0.95324256  0.13883257    -0.79500
C117        C  0.61222704  0.98522398  0.90996103     0.80500
N118        N  0.59203471  0.00264304  0.92787288    -0.77800
C119        C  0.58090435  0.99097266  0.95568320     0.83000
N120        N  0.58893003  0.96108522  0.96440719    -0.77700
C121        C  0.60932488  0.94397326  0.94634464     0.83100
N122        N  0.62083693  0.95631071  0.91950753    -0.79500
C123        C  0.60805379  0.19026876  0.94352996     0.80500
N124        N  0.61695400  0.18076181  0.91459739    -0.77800
C125        C  0.60683590  0.15309341  0.90282088     0.83000
N126        N  0.58793273  0.13408925  0.92064578    -0.77700
C127        C  0.57980818  0.14267053  0.95056383     0.83100
N128        N  0.58921742  0.17138132  0.96154384    -0.79500
C129        C  0.60335004  0.19450049  0.11121675     0.80500
N130        N  0.58418404  0.17665522  0.09262520    -0.77800
C131        C  0.57709550  0.14639376  0.10090628     0.83000
N132        N  0.58787587  0.13498877  0.12889047    -0.77700
C133        C  0.60681356  0.15307469  0.14747679     0.83100
N134        N  0.61464965  0.18241166  0.13825612    -0.79500
C135        C  0.34636353  0.19379507  0.93972212     0.80500
N136        N  0.33579557  0.18351069  0.91165937    -0.77800
C137        C  0.34386798  0.15485780  0.90073279     0.83000
N138        N  0.36235044  0.13557520  0.91847986    -0.77700
C139        C  0.37239809  0.14512716  0.94741052     0.83100
N140        N  0.36493929  0.17469096  0.95760551    -0.79500
C141        C  0.34495849  0.98216541  0.90187089     0.80500
N142        N  0.33922186  0.95200017  0.90956649    -0.77800
C143        C  0.35012473  0.93949745  0.93656493     0.83000
N144        N  0.36701912  0.95812473  0.95668268    -0.77700
C145        C  0.37231668  0.98919925  0.94974084     0.83100
N146        N  0.36171584  0.00089197  0.92179985    -0.79500
C147        C  0.34193033  0.98821077  0.15224264     0.80500
N148        N  0.32203207  0.96882609  0.13691752    -0.77800
C149        C  0.32277455  0.96605325  0.10537424     0.83000
N150        N  0.34401103  0.98313751  0.08845394    -0.77700
C151        C  0.36473785  0.00248792  0.10338116     0.83100
N152        N  0.36382048  0.00480230  0.13546511    -0.79500
C153        C  0.33846477  0.18604551  0.11343876     0.80500
N154        N  0.33046486  0.17453197  0.14182834    -0.77800
C155        C  0.34173497  0.14663832  0.15171240     0.83000
N156        N  0.36112748  0.12950411  0.13253468    -0.77700
C157        C  0.36834695  0.14023946  0.10304082     0.83100
N158        N  0.35763630  0.16910521  0.09401609    -0.79500
O159        O  0.52302256  0.00636711  0.09199096    -0.75000
O160        O  0.56251222  0.03108218  0.06464609    -0.53900
C161        C  0.55224071  0.01114283  0.08545412     0.78700
O162        O  0.42386322  0.00049253  0.96556130    -0.59600
O163        O  0.38472953  0.03082840  0.98693137    -0.52600
C164        C  0.39478206  0.00810932  0.96897724     0.70700
O165        O  0.52795944  0.00079333  0.96875851    -0.74200
O166        O  0.56553843  0.03139275  0.99225639    -0.54700
C167        C  0.55676055  0.00882009  0.97370207     0.76700
O168        O  0.41825222  0.01421100  0.09407914    -0.59300
O169        O  0.38154288  0.03507733  0.06073823    -0.52400
C170        C  0.38967010  0.01861955  0.08499005     0.73300
Zr171      Zr  0.47162210  0.02553101  0.07506747     2.54700
O172        O  0.46744092  0.96840531  0.07541048    -0.79900
O173        O  0.47152124  0.03345173  0.13176302    -0.93300
Zr174      Zr  0.47516935  0.01875637  0.98331310     2.64700
O175        O  0.47547385  0.96223906  0.99297830    -0.98200
O176        O  0.47671224  0.01601564  0.92616009    -0.80300
O177        O  0.50486063  0.02211820  0.03016660    -0.83700
O178        O  0.44183199  0.02209394  0.02812049    -2.18400
O179        O  0.42097934  0.13000320  0.08946669    -0.67000
O180        O  0.38289821  0.10447217  0.06123544    -0.51600
C181        C  0.39206073  0.12357993  0.08325350     0.71700
O182        O  0.52742125  0.12822729  0.96019838    -0.60000
O183        O  0.56504540  0.10496054  0.99077912    -0.51900
C184        C  0.55615023  0.12386587  0.96846167     0.73500
O185        O  0.42420455  0.13015232  0.95901837    -0.71400
O186        O  0.38467078  0.10577733  0.98641478    -0.50000
C187        C  0.39498464  0.12553411  0.96548166     0.74900
O188        O  0.52492172  0.13552142  0.08604874    -0.66700
O189        O  0.56377842  0.10552515  0.06380549    -0.53900
C190        C  0.55398873  0.12790069  0.08217311     0.73300
Zr191      Zr  0.47313051  0.11748619  0.06877324     2.77500
O192        O  0.46929470  0.17337456  0.05719712    -0.97400
O193        O  0.47547737  0.12331580  0.12564456    -0.78300
Zr194      Zr  0.47527835  0.11095267  0.97654732     2.70100
O195        O  0.47678798  0.16777353  0.96992076    -0.79500
O196        O  0.47556468  0.09842419  0.92071548    -0.98600
Zr197      Zr  0.53712745  0.06834855  0.02742196     2.21500
Zr198      Zr  0.41057799  0.06890934  0.02365108     2.11100
O199        O  0.44289117  0.11519693  0.02198562    -2.47300
O200        O  0.50552193  0.11475285  0.02336352    -0.79300
O201        O  0.44121287  0.07181462  0.07072796    -0.71500
O202        O  0.50657071  0.06495010  0.98025644    -2.32400
O203        O  0.50387088  0.07116516  0.07308347    -2.28700
O204        O  0.44383803  0.06490567  0.97833767    -0.73200
H205        H  0.42844057  0.00376181  0.02911007     0.78800
H206        H  0.52019004  0.06384189  0.96206573     0.79800
H207        H  0.43003050  0.13386337  0.02084914     0.82100
H208        H  0.51646439  0.07212319  0.09185754     0.79700
H209        H  0.49288214  0.03155596  0.91980500     0.42700
H210        H  0.45381633  0.09149069  0.91609109     0.41700
H211        H  0.48060404  0.17606458  0.99130370     0.41400
H212        H  0.46459660  0.18328372  0.07773418     0.39300
H213        H  0.47408083  0.10156490  0.13381882     0.42400
H214        H  0.49305957  0.04062564  0.13691908     0.37200
H215        H  0.48467674  0.96116732  0.06147452     0.43300
H216        H  0.45411231  0.95720007  0.00086495     0.39700
H217        H  0.49112366  0.17993951  0.05230653     0.44700
H218        H  0.47012298  0.01199760  0.14069791     0.43400
H219        H  0.47634802  0.95263876  0.97179580     0.43500
H220        H  0.47757003  0.11905794  0.91011696     0.43900
C221        C  0.09840177  0.98455289  0.65808093     0.80500
N222        N  0.08072676  0.00216157  0.63796016    -0.77800
C223        C  0.05085320  0.99287694  0.63055679     0.83000
N224        N  0.03966903  0.96503922  0.64212353    -0.77700
C225        C  0.05767067  0.94765926  0.66215000     0.83100
N226        N  0.08660082  0.95770808  0.67006000    -0.79500
C227        C  0.85650863  0.98231163  0.66216392     0.80500
N228        N  0.86630945  0.95325471  0.66988954    -0.77800
C229        C  0.89328115  0.94152712  0.65799047     0.83000
N230        N  0.91126423  0.95955327  0.63834008    -0.77700
C231        C  0.90220766  0.98955955  0.63125882     0.83100
N232        N  0.87425359  0.00056428  0.64261136    -0.79500
C233        C  0.89183996  0.18980642  0.65632453     0.80500
N234        N  0.86284396  0.18024820  0.66506994    -0.77800
C235        C  0.85115085  0.15248558  0.65516759     0.83000
N236        N  0.86910980  0.13351631  0.63639433    -0.77700
C237        C  0.89902344  0.14227230  0.62825730     0.83100
N238        N  0.91005028  0.17092950  0.63775192    -0.79500
C239        C  0.05736100  0.18775563  0.65975650     0.80500
N240        N  0.08504529  0.17590076  0.66948005    -0.77800
C241        C  0.09539826  0.14795729  0.65875399     0.83000
N242        N  0.07743103  0.13100309  0.63836183    -0.77700
C243        C  0.04876834  0.14209622  0.62916708     0.83100
N244        N  0.03911103  0.17103562  0.63931217    -0.79500
C245        C  0.89014011  0.18556484  0.39186749     0.80500
N246        N  0.90859319  0.16759843  0.41101142    -0.77800
C247        C  0.89863283  0.13842277  0.42025101     0.83000
N248        N  0.86935671  0.12839574  0.41162845    -0.77700
C249        C  0.85121847  0.14660267  0.39248147     0.83100
N250        N  0.86191796  0.17471621  0.38257387    -0.79500
C251        C  0.84994019  0.97947361  0.39584979     0.80500
N252        N  0.86075720  0.95127370  0.38600625    -0.77800
C253        C  0.88933351  0.94077048  0.39495935     0.83000
N254        N  0.90795529  0.95916401  0.41353827    -0.77700
C255        C  0.89803355  0.98834300  0.42265130     0.83100
N256        N  0.86848365  0.99802742  0.41443707    -0.79500
C257        C  0.09867364  0.97996068  0.39324928     0.80500
N258        N  0.08055010  0.99871061  0.41207541    -0.77800
C259        C  0.05128505  0.98898804  0.42133005     0.83000
N260        N  0.04136137  0.95949862  0.41317942    -0.77700
C261        C  0.05971290  0.94088713  0.39441779     0.83100
N262        N  0.08791118  0.95148590  0.38440937    -0.79500
C263        C  0.05840370  0.18998869  0.39380366     0.80500
N264        N  0.08564758  0.17838877  0.38231780    -0.77800
C265        C  0.09534746  0.14922423  0.39000537     0.83000
N266        N  0.07712003  0.13080299  0.40905887    -0.77700
C267        C  0.04877345  0.14153920  0.41978555     0.83100
N268        N  0.03997036  0.17167682  0.41283901    -0.79500
O269        O  0.91436287  0.00052662  0.57865771    -0.75000
O270        O  0.93891924  0.02996769  0.61638768    -0.53900
C271        C  0.91980909  0.00796381  0.60742761     0.78700
O272        O  0.03963815  0.00260418  0.47359419    -0.59600
O273        O  0.01186106  0.02765067  0.43494124    -0.52600
C274        C  0.03299432  0.00782102  0.44456895     0.70700
O275        O  0.04000387  0.00490855  0.57787607    -0.74200
O276        O  0.01082044  0.02986440  0.61573076    -0.54700
C277        C  0.03259503  0.01047733  0.60668614     0.76700
O278        O  0.91148865  0.00045413  0.47472719    -0.59300
O279        O  0.93734504  0.02745236  0.43582492    -0.52400
C280        C  0.91692698  0.00682078  0.44566126     0.73300
Zr281      Zr  0.92981822  0.01771359  0.52612385     2.54700
O282        O  0.93563752  0.96074912  0.52746582    -0.79900
O283        O  0.87249121  0.01814582  0.52674283    -0.93300
Zr284      Zr  0.02208569  0.01985026  0.52554162     2.64700
O285        O  0.01774892  0.96280190  0.52848553    -0.98200
O286        O  0.07938669  0.02018814  0.52513706    -0.80300
O287        O  0.97599951  0.01913220  0.55715847    -0.83700
O288        O  0.97587800  0.01794076  0.49434070    -2.18400
O289        O  0.91017938  0.12608306  0.47260953    -0.67000
O290        O  0.93813281  0.10025858  0.43442811    -0.51600
C291        C  0.91696279  0.12025289  0.44372682     0.71700
O292        O  0.03550303  0.13131754  0.57659743    -0.60000
O293        O  0.01085678  0.10276865  0.61510257    -0.51900
C294        C  0.03020338  0.12435972  0.60558858     0.73500
O295        O  0.03644290  0.12970963  0.47229477    -0.71400
O296        O  0.01103206  0.10134693  0.43425722    -0.50000
C297        C  0.03072076  0.12288889  0.44341195     0.74900
O298        O  0.91041166  0.12819169  0.57619108    -0.66700
O299        O  0.93838912  0.10349043  0.61486053    -0.53900
C300        C  0.91725139  0.12327351  0.60517751     0.73300
Zr301      Zr  0.92771415  0.11011698  0.52467117     2.77500
O302        O  0.92939739  0.16734849  0.52463737    -0.97400
O303        O  0.87061073  0.10577270  0.52545207    -0.78300
Zr304      Zr  0.02025499  0.11228365  0.52456679     2.70100
O305        O  0.01928089  0.16947318  0.52315539    -0.79500
O306        O  0.07739210  0.10871633  0.52679831    -0.98600
Zr307      Zr  0.97472118  0.06618876  0.58805233     2.21500
Zr308      Zr  0.97493992  0.06422272  0.46197777     2.11100
O309        O  0.97400522  0.11114727  0.49339363    -2.47300
O310        O  0.97387700  0.11230334  0.55581206    -0.79300
O311        O  0.92849246  0.06345374  0.49409359    -0.71500
O312        O  0.02153654  0.06650557  0.55627117    -2.32400
O313        O  0.92806931  0.06442328  0.55662387    -2.28700
O314        O  0.02168793  0.06573043  0.49360047    -0.73200
H315        H  0.97611686  0.99929329  0.48146422     0.78800
H316        H  0.04007641  0.06711804  0.56936104     0.79800
H317        H  0.97362923  0.12954217  0.48012237     0.82100
H318        H  0.90957189  0.06426576  0.56978623     0.79700
H319        H  0.08522239  0.04124113  0.53315425     0.42700
H320        H  0.08374954  0.10025438  0.50605723     0.41700
H321        H  0.99691531  0.17500192  0.52658118     0.41400
H322        H  0.93945399  0.17313676  0.50443068     0.39300
H323        H  0.86623743  0.08460372  0.51683043     0.42400
H324        H  0.86665469  0.02957206  0.54617092     0.37200
H325        H  0.95244547  0.95691324  0.54306046     0.43300
H326        H  0.00676787  0.95652730  0.50898791     0.39700
H327        H  0.90715848  0.17382643  0.52226575     0.44700
H328        H  0.86644603  0.99604272  0.53093530     0.43400
H329        H  0.03956557  0.95514101  0.52560488     0.43500
H330        H  0.08465835  0.13084608  0.52656555     0.43900
C331        C  0.94654397  0.39354625  0.25965801    -0.10600
C332        C  0.97492323  0.40804544  0.25248248    -0.04400
C333        C  0.00337703  0.39771396  0.26477827    -0.10500
C334        C  0.00329624  0.37432400  0.28837951     0.10400
C335        C  0.97414213  0.36084985  0.29798939    -0.02300
C336        C  0.94566662  0.36989863  0.28296704     0.10200
C337        C  0.91738378  0.35502244  0.29145939    -0.12300
C338        C  0.91685828  0.33178672  0.31466837    -0.12300
C339        C  0.94465644  0.32251820  0.32984987     0.10200
C340        C  0.97368003  0.33703271  0.32131411    -0.02300
C341        C  0.03135051  0.36382895  0.30221801    -0.12500
C342        C  0.03091962  0.34034012  0.32516935    -0.12500
C343        C  0.00243302  0.32660418  0.33490790     0.10400
C344        C  0.00169512  0.30233198  0.35762344    -0.10500
C345        C  0.97280598  0.29026780  0.36720246    -0.04400
C346        C  0.94458554  0.29886477  0.35321063    -0.10600
H347        H  0.89543862  0.36156202  0.28037514     0.07700
H348        H  0.89450987  0.32113150  0.32077084     0.07700
H349        H  0.05377431  0.37391056  0.29541770     0.07800
H350        H  0.05303096  0.33301204  0.33540413     0.07800
H351        H  0.97532797  0.42495057  0.23332428     0.04300
H352        H  0.97260455  0.27061115  0.38351289     0.04300
C353        C  0.31177506  0.09371175  0.26927879    -0.10600
C354        C  0.32656980  0.06536325  0.26231540    -0.04400
C355        C  0.31393061  0.03644323  0.27117160    -0.10500
C356        C  0.28877984  0.03590222  0.29315021     0.10400
C357        C  0.27517254  0.06479307  0.30323168    -0.02300
C358        C  0.28613060  0.09380119  0.29057656     0.10200
C359        C  0.27101164  0.12190638  0.29918244    -0.12300
C360        C  0.24552060  0.12170733  0.31999894    -0.12300
C361        C  0.23429228  0.09337508  0.33273668     0.10200
C362        C  0.24914497  0.06454208  0.32423028    -0.02300
C363        C  0.27652342  0.00743544  0.30472593    -0.12500
C364        C  0.25103307  0.00716550  0.32559245    -0.12500
C365        C  0.23705783  0.03537497  0.33557854     0.10400
C366        C  0.21104183  0.03557127  0.35640197    -0.10500
C367        C  0.19783898  0.06409789  0.36520406    -0.04400
C368        C  0.20837138  0.09271795  0.35360449    -0.10600
H369        H  0.27908409  0.14427329  0.29002493     0.07700
H370        H  0.23465210  0.14390007  0.32616128     0.07700
H371        H  0.28673878  0.98519509  0.29766180     0.07800
H372        H  0.24231717  0.98472946  0.33395835     0.07800
H373        H  0.34487071  0.06559001  0.24450020     0.04300
H374        H  0.17667158  0.06386016  0.37962843     0.04300
C375        C  0.21123212  0.39730534  0.05795215    -0.10600
C376        C  0.20483310  0.41190863  0.02946658    -0.04400
C377        C  0.21573407  0.39997721  0.00099722    -0.10500
C378        C  0.23833512  0.37561873  0.00109481     0.10400
C379        C  0.24764593  0.36227809  0.03023673    -0.02300
C380        C  0.23316606  0.37234937  0.05874367     0.10200
C381        C  0.24096724  0.35730093  0.08701925    -0.12300
C382        C  0.26308980  0.33305836  0.08750654    -0.12300
C383        C  0.27796223  0.32308603  0.05971039     0.10200
C384        C  0.27006990  0.33762844  0.03069279    -0.02300
C385        C  0.25140485  0.36403171  0.97301807    -0.12500
C386        C  0.27387159  0.34004344  0.97347988    -0.12500
C387        C  0.28361826  0.32666143  0.00201614     0.10400
C388        C  0.30633843  0.30233928  0.00295301    -0.10500
C389        C  0.31469343  0.28965083  0.03183172    -0.04400
C390        C  0.30043386  0.29871425  0.05985216    -0.10600
H391        H  0.23030234  0.36455431  0.10899757     0.07700
H392        H  0.26873548  0.32230841  0.10985452     0.07700
H393        H  0.24461301  0.37388701  0.95057327     0.07800
H394        H  0.28375218  0.33213588  0.95136515     0.07800
H395        H  0.18655623  0.42974674  0.02900776     0.04300
H396        H  0.33050034  0.26958359  0.03219129     0.04300
C397        C  0.64532937  0.03532676  0.26074967    -0.10600
C398        C  0.63544173  0.06385120  0.24826618    -0.04400
C399        C  0.64780805  0.09253222  0.25764227    -0.10500
C400        C  0.67029222  0.09317754  0.28209475     0.10400
C401        C  0.68002167  0.06431519  0.29616994    -0.02300
C402        C  0.66812028  0.03513588  0.28488926     0.10200
C403        C  0.67947751  0.00691245  0.29777828    -0.12300
C404        C  0.70210760  0.00719394  0.32159679    -0.12300
C405        C  0.71388451  0.03569685  0.33341677     0.10200
C406        C  0.70258441  0.06458237  0.32069206    -0.02300
C407        C  0.68335891  0.12156036  0.29270261    -0.12500
C408        C  0.70544834  0.12181987  0.31692905    -0.12500
C409        C  0.71511285  0.09370359  0.33130671     0.10400
C410        C  0.73726302  0.09371858  0.35595284    -0.10500
C411        C  0.74616179  0.06537767  0.36956501    -0.04400
C412        C  0.73681873  0.03643171  0.35756436    -0.10600
H413        H  0.67077568  0.98444323  0.28954566     0.07700
H414        H  0.71011730  0.98495892  0.33104281     0.07700
H415        H  0.67632802  0.14376813  0.28245754     0.07800
H416        H  0.71472501  0.14424795  0.32463646     0.07800
H417        H  0.61958632  0.06351403  0.22827540     0.04300
H418        H  0.76473855  0.06582486  0.38703658     0.04300
C419        C  0.00607262  0.72497679  0.27342342    -0.10600
C420        C  0.97733005  0.71369694  0.26245339    -0.04400
C421        C  0.94922980  0.72971524  0.26763245    -0.10500
C422        C  0.94844362  0.75429483  0.29003744     0.10400
C423        C  0.97695417  0.76410306  0.30447656    -0.02300
C424        C  0.00606510  0.75019461  0.29532000     0.10200
C425        C  0.03423897  0.76230201  0.30765510    -0.12300
C426        C  0.03395467  0.78754811  0.32876466    -0.12300
C427        C  0.00546424  0.80126011  0.33846372     0.10200
C428        C  0.97659737  0.78938634  0.32631927    -0.02300
C429        C  0.92015296  0.76941811  0.29809594    -0.12500
C430        C  0.91963484  0.79360843  0.32035433    -0.12500
C431        C  0.94750326  0.80388301  0.33473934     0.10400
C432        C  0.94747334  0.82852493  0.35713273    -0.10500
C433        C  0.97587398  0.83867556  0.36958932    -0.04400
C434        C  0.00473383  0.82683402  0.35976176    -0.10600
H435        H  0.05666971  0.75212414  0.30108592     0.07700
H436        H  0.05616844  0.79612007  0.33778130     0.07700
H437        H  0.89815856  0.76218991  0.28751766     0.07800
H438        H  0.89726378  0.80430046  0.32624031     0.07800
H439        H  0.97759263  0.69581684  0.24427641     0.04300
H440        H  0.97567258  0.85912437  0.38492125     0.04300
C441        C  0.30258684  0.03975462  0.79136103    -0.10600
C442        C  0.31384533  0.06871957  0.80140206    -0.04400
C443        C  0.30073632  0.09689074  0.79143945    -0.10500
C444        C  0.27759928  0.09660050  0.76772268     0.10400
C445        C  0.26792522  0.06727981  0.75482069    -0.02300
C446        C  0.27962879  0.03859345  0.76742664     0.10200
C447        C  0.26802437  0.00988314  0.75591611    -0.12300
C448        C  0.24588746  0.00925690  0.73167410    -0.12300
C449        C  0.23480341  0.03731868  0.71824988     0.10200
C450        C  0.24554052  0.06662868  0.73025012    -0.02300
C451        C  0.26389743  0.12452464  0.75670523    -0.12500
C452        C  0.24158050  0.12384364  0.73269135    -0.12500
C453        C  0.23255799  0.09524763  0.71886820     0.10400
C454        C  0.21073519  0.09426761  0.69394247    -0.10500
C455        C  0.20355106  0.06556422  0.68011924    -0.04400
C456        C  0.21302429  0.03714236  0.69320137    -0.10600
H457        H  0.27643911  0.98776795  0.76528898     0.07700
H458        H  0.23790055  0.98667450  0.72302542     0.07700
H459        H  0.27073204  0.14708035  0.76633871     0.07800
H460        H  0.23188865  0.14589648  0.72447544     0.07800
H461        H  0.33056398  0.06928441  0.82068571     0.04300
H462        H  0.18542783  0.06512322  0.66218413     0.04300
C463        C  0.00312942  0.38858597  0.80151119    -0.10600
C464        C  0.97409832  0.39973696  0.81152711    -0.04400
C465        C  0.94586437  0.38876066  0.79943199    -0.10500
C466        C  0.94625095  0.36636653  0.77496695     0.10400
C467        C  0.97573650  0.35594140  0.76289711    -0.02300
C468        C  0.00439012  0.36643669  0.77675004     0.10200
C469        C  0.03311896  0.35445501  0.76558809    -0.12300
C470        C  0.03385154  0.33282644  0.74083827    -0.12300
C471        C  0.00589742  0.32272912  0.72643947     0.10200
C472        C  0.97652249  0.33413898  0.73772638    -0.02300
C473        C  0.91828604  0.35397900  0.76251888    -0.12500
C474        C  0.91910903  0.33209185  0.73803754    -0.12500
C475        C  0.94789652  0.32234687  0.72501494     0.10400
C476        C  0.94908975  0.30108371  0.69950366    -0.10500
C477        C  0.97808359  0.29320265  0.68657161    -0.04400
C478        C  0.00623966  0.30126343  0.70108483    -0.10600
H479        H  0.05518749  0.36201903  0.77576744     0.07700
H480        H  0.05646158  0.32436874  0.73262731     0.07700
H481        H  0.89560638  0.36139181  0.77150740     0.07800
H482        H  0.89705192  0.32332460  0.72882883     0.07800
H483        H  0.97331307  0.41538696  0.83171654     0.04300
H484        H  0.97865251  0.27565238  0.66801356     0.04300
C485        C  0.17881879  0.76877055  0.04248508    -0.10600
C486        C  0.18149873  0.74355015  0.02209513    -0.04400
C487        C  0.20324690  0.74305663  0.99754249    -0.10500
C488        C  0.22588323  0.76760594  0.99553032     0.10400
C489        C  0.22541412  0.79207287  0.01842680    -0.02300
C490        C  0.20130422  0.79296647  0.04167303     0.10200
C491        C  0.19994734  0.81813564  0.06293169    -0.12300
C492        C  0.22248307  0.84185023  0.06208884    -0.12300
C493        C  0.24694975  0.84114432  0.03988728     0.10200
C494        C  0.24818694  0.81641157  0.01734890    -0.02300
C495        C  0.24868819  0.76855945  0.97152092    -0.12500
C496        C  0.27116405  0.79270448  0.97037597    -0.12500
C497        C  0.27150249  0.81662363  0.99320227     0.10400
C498        C  0.29432025  0.84101361  0.99289525    -0.10500
C499        C  0.29360679  0.86366302  0.01654843    -0.04400
C500        C  0.26998194  0.86490079  0.03900650    -0.10600
H501        H  0.18149062  0.81956328  0.08047172     0.07700
H502        H  0.22054409  0.86085349  0.07890717     0.07700
H503        H  0.24950250  0.75032500  0.95377190     0.07800
H504        H  0.28860013  0.79235547  0.95176519     0.07800
H505        H  0.16351306  0.72544844  0.02341764     0.04300
H506        H  0.31084668  0.88253529  0.01627228     0.04300
C507        C  0.73451891  0.40095841  0.00068305    -0.10600
C508        C  0.74233949  0.41482330  0.02919728    -0.04400
C509        C  0.73121483  0.40349665  0.05781075    -0.10500
C510        C  0.70753573  0.38003912  0.05785744     0.10400
C511        C  0.69715663  0.36723853  0.02871572    -0.02300
C512        C  0.71151396  0.37693389  0.00005183     0.10200
C513        C  0.70281841  0.36217264  0.97182738    -0.12300
C514        C  0.67998641  0.33848505  0.97154591    -0.12300
C515        C  0.66503205  0.32898314  0.99945388     0.10200
C516        C  0.67381080  0.34335049  0.02839905    -0.02300
C517        C  0.69437484  0.36877128  0.08600558    -0.12500
C518        C  0.67125036  0.34536549  0.08569023    -0.12500
C519        C  0.66059032  0.33252522  0.05721276     0.10400
C520        C  0.63730161  0.30875133  0.05655352    -0.10500
C521        C  0.62720773  0.29713842  0.02775133    -0.04400
C522        C  0.64158000  0.30532583  0.99954099    -0.10600
H523        H  0.71347214  0.36912778  0.94974077     0.07700
H524        H  0.67376014  0.32788857  0.94927292     0.07700
H525        H  0.70177662  0.37825699  0.10841933     0.07800
H526        H  0.66149722  0.33750573  0.10788585     0.07800
H527        H  0.76158427  0.43164121  0.02944132     0.04300
H528        H  0.61080814  0.27752874  0.02769589     0.04300
C529        C  0.00410566  0.73686237  0.79336101    -0.10600
C530        C  0.97584868  0.72180492  0.79992178    -0.04400
C531        C  0.94728640  0.73189523  0.78759910    -0.10500
C532        C  0.94723916  0.75604357  0.76468471     0.10400
C533        C  0.97625443  0.77040705  0.75592444    -0.02300
C534        C  0.00476885  0.76134494  0.77091918     0.10200
C535        C  0.03287534  0.77696512  0.76316653    -0.12300
C536        C  0.03318630  0.80106230  0.74083127    -0.12300
C537        C  0.00537143  0.81031640  0.72571403     0.10200
C538        C  0.97652526  0.79501372  0.73341758    -0.02300
C539        C  0.91915494  0.76658210  0.75086303    -0.12500
C540        C  0.91939946  0.79094063  0.72879087    -0.12500
C541        C  0.94775846  0.80534093  0.71972099     0.10400
C542        C  0.94845594  0.83004441  0.69744637    -0.10500
C543        C  0.97718755  0.84300478  0.68882685    -0.04400
C544        C  0.00523337  0.83460570  0.70308847    -0.10600
H545        H  0.05484535  0.77038706  0.77417582     0.07700
H546        H  0.05537409  0.81234836  0.73529327     0.07700
H547        H  0.89683579  0.75589591  0.75704612     0.07800
H548        H  0.89727741  0.79833150  0.71862027     0.07800
H549        H  0.97563941  0.70436094  0.81857953     0.04300
H550        H  0.97735852  0.86298376  0.67287543     0.04300
C551        C  0.64684669  0.09613235  0.79169818    -0.10600
C552        C  0.63662579  0.06758386  0.80392395    -0.04400
C553        C  0.65062260  0.03918738  0.79600732    -0.10500
C554        C  0.67404036  0.03853580  0.77241961     0.10400
C555        C  0.68307502  0.06717240  0.75750023    -0.02300
C556        C  0.67001691  0.09627165  0.76769485     0.10200
C557        C  0.68073541  0.12440631  0.75400044    -0.12300
C558        C  0.70371263  0.12408500  0.73033629    -0.12300
C559        C  0.71673924  0.09561956  0.71972602     0.10200
C560        C  0.70644653  0.06685950  0.73362848    -0.02300
C561        C  0.68874112  0.01033068  0.76359780    -0.12500
C562        C  0.71179168  0.01003187  0.74018017    -0.12500
C563        C  0.72076463  0.03792015  0.72489484     0.10400
C564        C  0.74405809  0.03790416  0.70126729    -0.10500
C565        C  0.75197608  0.06583558  0.68631688    -0.04400
C566        C  0.74007352  0.09478070  0.69580786    -0.10600
H567        H  0.67113434  0.14680907  0.76138981     0.07700
H568        H  0.71110116  0.14624980  0.72017512     0.07700
H569        H  0.68227355  0.98829663  0.77463532     0.07800
H570        H  0.72242827  0.98776258  0.73387786     0.07800
H571        H  0.62006159  0.06785633  0.82344408     0.04300
H572        H  0.77127657  0.06540218  0.66951394     0.04300
C573        C  0.74448050  0.74096299  0.00128346    -0.10600
C574        C  0.75478589  0.73041153  0.03037048    -0.04400
C575        C  0.74330918  0.74243068  0.05853302    -0.10500
C576        C  0.71848068  0.76447275  0.05808561     0.10400
C577        C  0.70606324  0.77425680  0.02864080    -0.02300
C578        C  0.71968544  0.76317740  0.00002595     0.10200
C579        C  0.70829408  0.77470914  0.97130450    -0.12300
C580        C  0.68368874  0.79651822  0.97052229    -0.12300
C581        C  0.66949257  0.80719128  0.99842098     0.10200
C582        C  0.68091230  0.79616777  0.02781864    -0.02300
C583        C  0.70603203  0.77714063  0.08597381    -0.12500
C584        C  0.68142819  0.79890197  0.08512645    -0.12500
C585        C  0.66844455  0.80850629  0.05638453     0.10400
C586        C  0.64342075  0.83039497  0.05515009    -0.10500
C587        C  0.63052366  0.83808986  0.02622003    -0.04400
C588        C  0.64425785  0.82888036  0.99797137    -0.10600
H589        H  0.71825218  0.76672109  0.94925543     0.07700
H590        H  0.67542355  0.80465171  0.94789183     0.07700
H591        H  0.71515745  0.77006552  0.10862748     0.07800
H592        H  0.67229509  0.80793763  0.10713274     0.07800
H593        H  0.77487287  0.71461855  0.03112149     0.04300
H594        H  0.61254732  0.85621517  0.02565279     0.04300
C595        C  0.02890166  0.28264597  0.36710724    -0.05200
C596        C  0.03160135  0.27486184  0.39921133    -0.32600
C597        C  0.04107385  0.24466851  0.40838531     0.36600
C598        C  0.04995704  0.22259103  0.38548295    -0.05500
C599        C  0.05223534  0.23218112  0.35396601    -0.32500
C600        C  0.04157111  0.26187179  0.34462969     0.36600
H601        H  0.02202028  0.29057151  0.41686207     0.16900
O602        O  0.04090822  0.23677141  0.43963195    -0.60000
H603        H  0.06012796  0.21573958  0.33615367     0.16900
O604        O  0.03914389  0.26834888  0.31315588    -0.60100
H605        H  0.06037428  0.27563787  0.30671457     0.43900
H606        H  0.01937275  0.22880217  0.44389648     0.43900
C607        C  0.18726745  0.11934026  0.36122991    -0.05200
C608        C  0.16495379  0.12789201  0.33854301    -0.32600
C609        C  0.13495766  0.13817505  0.34769505     0.36600
C610        C  0.12697708  0.13955379  0.37982724    -0.05500
C611        C  0.15027610  0.13435888  0.40237374    -0.32500
C612        C  0.18049827  0.12505816  0.39325771     0.36600
H613        H  0.16953547  0.12328591  0.31390191     0.16900
O614        O  0.11300480  0.14491501  0.32511597    -0.60000
H615        H  0.14477263  0.13672811  0.42714497     0.16900
O616        O  0.20172146  0.11678749  0.41601765    -0.60100
H617        H  0.21770433  0.13378399  0.41590855     0.43900
H618        H  0.10164163  0.12487616  0.32144161     0.43900
C619        C  0.13084555  0.98872418  0.38371463    -0.05200
C620        C  0.15343796  0.99559401  0.40656840    -0.32600
C621        C  0.18396135  0.00452418  0.39768962     0.36600
C622        C  0.19162073  0.00810696  0.36553287    -0.05500
C623        C  0.17021253  0.99729153  0.34295030    -0.32500
C624        C  0.14001996  0.98745021  0.35188037     0.36600
H625        H  0.14718955  0.99485990  0.43126665     0.16900
O626        O  0.20505435  0.01351017  0.42036034    -0.60000
H627        H  0.17544947  0.00018253  0.31817320     0.16900
O628        O  0.11869308  0.97954024  0.32907577    -0.60100
H629        H  0.12222028  0.95684671  0.32502555     0.43900
H630        H  0.19752136  0.03415513  0.42819749     0.43900
C631        C  0.03158031  0.84763505  0.36777350    -0.05200
C632        C  0.03572294  0.85524544  0.39975154    -0.32600
C633        C  0.04458178  0.88567594  0.40878925     0.36600
C634        C  0.05072888  0.90855059  0.38576650    -0.05500
C635        C  0.05125852  0.89960740  0.35400598    -0.32500
C636        C  0.04141552  0.86950639  0.34488725     0.36600
H637        H  0.02797105  0.83888315  0.41770627     0.16900
O638        O  0.04587175  0.89315782  0.44010697    -0.60000
H639        H  0.05744143  0.91664518  0.33607329     0.16900
O640        O  0.03808428  0.86291568  0.31350466    -0.60100
H641        H  0.01709386  0.87123662  0.30768729     0.43900
H642        H  0.06844787  0.89166762  0.44574447     0.43900
C643        C  0.81785830  0.98887227  0.38636328    -0.05200
C644        C  0.80973975  0.98846734  0.35439633    -0.32600
C645        C  0.78024511  0.99928134  0.34437811     0.36600
C646        C  0.75803321  0.01003660  0.36657293    -0.05500
C647        C  0.76472144  0.00598019  0.39879897    -0.32500
C648        C  0.79462654  0.99626963  0.40870859     0.36600
H649        H  0.82709502  0.98171484  0.33694907     0.16900
O650        O  0.77510295  0.00332256  0.31283827    -0.60000
H651        H  0.74809473  0.01428023  0.41628807     0.16900
O652        O  0.80131424  0.99542082  0.44019996    -0.60100
H653        H  0.79696081  0.97346594  0.44676320     0.43900
H654        H  0.76916588  0.98222186  0.30489497     0.43900
C655        C  0.89919960  0.90919869  0.38456199    -0.05200
C656        C  0.90350040  0.88509395  0.40654648    -0.32600
C657        C  0.91368607  0.85524888  0.39680860     0.36600
C658        C  0.92067379  0.84957308  0.36479654    -0.05500
C659        C  0.91310247  0.87276695  0.34262031    -0.32500
C660        C  0.90235029  0.90238658  0.35232413     0.36600
H661        H  0.89978002  0.88964058  0.43133776     0.16900
O662        O  0.91983086  0.83260091  0.41894446    -0.60000
H663        H  0.91882424  0.86915098  0.31805032     0.16900
O664        O  0.89691855  0.92521071  0.33022754    -0.60100
H665        H  0.91732471  0.93625518  0.32761161     0.43900
H666        H  0.93978067  0.83907241  0.42912551     0.43900
C667        C  0.91822379  0.27713011  0.36045013    -0.05200
C668        C  0.91124276  0.27189679  0.39243871    -0.32600
C669        C  0.90246135  0.24198164  0.40306729     0.36600
C670        C  0.89924920  0.21725082  0.38149467    -0.05500
C671        C  0.90134294  0.22367195  0.34920583    -0.32500
C672        C  0.91124497  0.25326093  0.33859343     0.36600
H673        H  0.91665559  0.28990099  0.40962312     0.16900
O674        O  0.89837010  0.23682997  0.43462911    -0.60000
H675        H  0.89716730  0.20512164  0.33225297     0.16900
O676        O  0.91720224  0.25756384  0.30717921    -0.60100
H677        H  0.93873708  0.24925690  0.30369938     0.43900
H678        H  0.87585515  0.24140790  0.43875118     0.43900
C679        C  0.75893724  0.11992752  0.36312644    -0.05200
C680        C  0.78253455  0.12581969  0.34077851    -0.32600
C681        C  0.81274024  0.13448037  0.35033182     0.36600
C682        C  0.81960025  0.13725945  0.38253793    -0.05500
C683        C  0.79519909  0.13510161  0.40460453    -0.32500
C684        C  0.76469971  0.12738175  0.39492734     0.36600
H685        H  0.77864523  0.12008140  0.31627867     0.16900
O686        O  0.83588831  0.13850784  0.32814169    -0.60000
H687        H  0.79989602  0.13895390  0.42932149     0.16900
O688        O  0.74168842  0.12283222  0.41712455    -0.60100
H689        H  0.73087440  0.14340760  0.41892102     0.43900
H690        H  0.84563785  0.11748238  0.32554602     0.43900
C691        C  0.03203583  0.27896589  0.69411751    -0.05200
C692        C  0.04079114  0.27502106  0.66241772    -0.32600
C693        C  0.04845006  0.24517188  0.65075392     0.36600
C694        C  0.04867199  0.21918401  0.67109419    -0.05500
C695        C  0.04431771  0.22393867  0.70341784    -0.32500
C696        C  0.03597197  0.25356874  0.71501484     0.36600
H697        H  0.03770823  0.29422933  0.64598396     0.16900
O698        O  0.05520789  0.24152122  0.61943407    -0.60000
H699        H  0.04585070  0.20424591  0.71950977     0.16900
O700        O  0.02732722  0.25636156  0.74597145    -0.60100
H701        H  0.04681328  0.26264612  0.75708516     0.43900
H702        H  0.03454732  0.23838188  0.60912335     0.43900
C703        C  0.18755287  0.11922560  0.68696079    -0.05200
C704        C  0.16390547  0.12414355  0.70953349    -0.32600
C705        C  0.13372137  0.13343934  0.70044023     0.36600
C706        C  0.12684897  0.13774815  0.66842252    -0.05500
C707        C  0.15109902  0.13589560  0.64617371    -0.32500
C708        C  0.18145964  0.12699027  0.65530314     0.36600
H709        H  0.16785619  0.11753327  0.73380206     0.16900
O710        O  0.11038434  0.13567619  0.72267847    -0.60000
H711        H  0.14635077  0.14074469  0.62164353     0.16900
O712        O  0.20446027  0.12317444  0.63289648    -0.60100
H713        H  0.19836731  0.10421561  0.62076380     0.43900
H714        H  0.11263090  0.15703422  0.73175513     0.43900
C715        C  0.90278168  0.22048582  0.66789083    -0.05200
C716        C  0.90618314  0.24592054  0.64723651    -0.32600
C717        C  0.91620490  0.27530401  0.65845190     0.36600
C718        C  0.92349154  0.27920949  0.69056418    -0.05500
C719        C  0.91708358  0.25448512  0.71148007    -0.32500
C720        C  0.90652883  0.22538209  0.70034825     0.36600
H721        H  0.90171200  0.24283887  0.62237246     0.16900
O722        O  0.92132865  0.29947807  0.63767326    -0.60000
H723        H  0.92325608  0.25671734  0.73607438     0.16900
O724        O  0.90219394  0.20108348  0.72111504    -0.60100
H725        H  0.88050601  0.20381646  0.72931614     0.43900
H726        H  0.94044249  0.29355638  0.62562070     0.43900
C727        C  0.81900477  0.14372475  0.66518978    -0.05200
C728        C  0.79660835  0.13455631  0.64295294    -0.32600
C729        C  0.76663484  0.12444534  0.65257948     0.36600
C730        C  0.75941090  0.12187272  0.68497287    -0.05500
C731        C  0.78051811  0.13468272  0.70678167    -0.32500
C732        C  0.80997200  0.14595586  0.69705164     0.36600
H733        H  0.80262939  0.13438253  0.61819040     0.16900
O734        O  0.74564643  0.11380541  0.63052131    -0.60000
H735        H  0.77571340  0.13266876  0.73172849     0.16900
O736        O  0.83090502  0.15623686  0.71927312    -0.60100
H737        H  0.82441549  0.17811043  0.72410222     0.43900
H738        H  0.75478277  0.09411022  0.62197393     0.43900
C739        C  0.92123602  0.84921760  0.68725668    -0.05200
C740        C  0.91907679  0.85624454  0.65491228    -0.32600
C741        C  0.91064964  0.88648800  0.64485316     0.36600
C742        C  0.90202542  0.90930347  0.66710406    -0.05500
C743        C  0.89949970  0.90068486  0.69887009    -0.32500
C744        C  0.90911568  0.87097236  0.70905488     0.36600
H745        H  0.92850073  0.83986231  0.63779989     0.16900
O746        O  0.91150425  0.89366123  0.61343436    -0.60000
H747        H  0.89196967  0.91779901  0.71620330     0.16900
O748        O  0.91123493  0.86531584  0.74070381    -0.60100
H749        H  0.88995754  0.85812025  0.74708714     0.43900
H750        H  0.93377876  0.89903064  0.60889626     0.43900
C751        C  0.82546923  0.99214204  0.67332320    -0.05200
C752        C  0.82053896  0.99719242  0.70549754    -0.32600
C753        C  0.79126139  0.00758535  0.71643595     0.36600
C754        C  0.76635999  0.01202226  0.69509133    -0.05500
C755        C  0.77037454  0.00270802  0.66362793    -0.32500
C756        C  0.79989151  0.99329474  0.65259869     0.36600
H757        H  0.83989753  0.99483793  0.72184770     0.16900
O758        O  0.78815602  0.01646931  0.74729455    -0.60000
H759        H  0.75160703  0.00647208  0.64686291     0.16900
O760        O  0.80388776  0.98672903  0.62128780    -0.60100
H761        H  0.80000398  0.96381593  0.61934411     0.43900
H762        H  0.79517031  0.03871222  0.74804168     0.43900
C763        C  0.19154346  0.01078229  0.68575168    -0.05200
C764        C  0.16854818  0.00403521  0.70849045    -0.32600
C765        C  0.13811795  0.99557350  0.69947688     0.36600
C766        C  0.13044331  0.99341157  0.66737404    -0.05500
C767        C  0.15425910  0.99642715  0.64477779    -0.32500
C768        C  0.18494080  0.00425526  0.65387598     0.36600
H769        H  0.17297017  0.00919819  0.73302766     0.16900
O770        O  0.11548340  0.99141200  0.72217745    -0.60000
H771        H  0.14892730  0.99335109  0.62008485     0.16900
O772        O  0.20710736  0.01024611  0.63116813    -0.60100
H773        H  0.21815266  0.98996498  0.62798330     0.43900
H774        H  0.10467838  0.01200376  0.72395375     0.43900
C775        C  0.03116576  0.85680384  0.69638788    -0.05200
C776        C  0.03481009  0.88200190  0.71740047    -0.32600
C777        C  0.04340737  0.91184203  0.70635807     0.36600
C778        C  0.04785763  0.91678635  0.67395336    -0.05500
C779        C  0.04753849  0.89104866  0.65349559    -0.32500
C780        C  0.03993268  0.86104133  0.66463799     0.36600
H781        H  0.02759354  0.87941224  0.74171577     0.16900
O782        O  0.04502540  0.93655388  0.72701248    -0.60000
H783        H  0.05257188  0.89434999  0.62873236     0.16900
O784        O  0.03624604  0.83698895  0.64350773    -0.60100
H785        H  0.05660064  0.82562093  0.64363076     0.43900
H786        H  0.06704860  0.93663517  0.73465210     0.43900
C787        C  0.31833683  0.11890540  0.24591471    -0.05200
C788        C  0.29449679  0.12559033  0.22417828    -0.32600
C789        C  0.30202289  0.13469151  0.19345948     0.36600
C790        C  0.33374757  0.13686642  0.18395848    -0.05500
C791        C  0.35746920  0.13357835  0.20646472    -0.32500
C792        C  0.34989426  0.12557337  0.23752251     0.36600
H793        H  0.27015575  0.12049413  0.22990104     0.16900
O794        O  0.27820940  0.13972943  0.17236601    -0.60000
H795        H  0.38189770  0.13685556  0.19985729     0.16900
O796        O  0.37376862  0.12003463  0.25840834    -0.60100
H797        H  0.37503020  0.13934304  0.27140067     0.43900
H798        H  0.27373586  0.11881154  0.16308536     0.43900
C799        C  0.30684634  0.27737001  0.08646183    -0.05200
C800        C  0.33863312  0.27255079  0.09422385    -0.32600
C801        C  0.34924228  0.24273046  0.10295647     0.36600
C802        C  0.32774390  0.21777800  0.10542204    -0.05500
C803        C  0.29542998  0.22380833  0.10274608    -0.32500
C804        C  0.28487648  0.25336860  0.09288162     0.36600
H805        H  0.35582225  0.29073745  0.08923713     0.16900
O806        O  0.38081257  0.23781031  0.10732562    -0.60000
H807        H  0.27854745  0.20500918  0.10626614     0.16900
O808        O  0.25355870  0.25753080  0.08633341    -0.60100
H809        H  0.25082002  0.25001105  0.06444474     0.43900
H810        H  0.38405896  0.23959568  0.13032477     0.43900
C811        C  0.32155808  0.01051988  0.24876011    -0.05200
C812        C  0.35324055  0.00688125  0.23912379    -0.32600
C813        C  0.36072678  0.99984340  0.20770036     0.36600
C814        C  0.33651708  0.99297286  0.18635638    -0.05500
C815        C  0.30536950  0.99142353  0.19754945    -0.32500
C816        C  0.29771258  0.00046647  0.22815499     0.36600
H817        H  0.37198622  0.01448818  0.25458023     0.16900
O818        O  0.39147846  0.00108536  0.19790040    -0.60000
H819        H  0.28625544  0.98591995  0.18167245     0.16900
O820        O  0.26656170  0.00425914  0.23577204    -0.60100
H821        H  0.25879102  0.98282893  0.24074322     0.43900
H822        H  0.39571471  0.02366178  0.19377828     0.43900
C823        C  0.30251129  0.94213762  0.09065409    -0.05200
C824        C  0.29845407  0.91306965  0.10597942    -0.32600
C825        C  0.28357995  0.88799168  0.09086807     0.36600
C826        C  0.27167462  0.89215884  0.06044897    -0.05500
C827        C  0.27211862  0.92234873  0.04686621    -0.32500
C828        C  0.28822335  0.94705667  0.06137395     0.36600
H829        H  0.30910508  0.90895015  0.12871187     0.16900
O830        O  0.28453512  0.85863823  0.10418908    -0.60000
H831        H  0.26320512  0.92572489  0.02326680     0.16900
O832        O  0.29065841  0.97551164  0.04638488    -0.60100
H833        H  0.30811491  0.97295063  0.03106368     0.43900
H834        H  0.26618700  0.85785269  0.11861809     0.43900
C835        C  0.33371277  0.99315645  0.87118548    -0.05200
C836        C  0.30125367  0.99539954  0.86581534    -0.32600
C837        C  0.28989482  0.00592869  0.83681278     0.36600
C838        C  0.31113092  0.01353435  0.81247785    -0.05500
C839        C  0.34337752  0.00739015  0.81678480    -0.32500
C840        C  0.35472741  0.99760570  0.84604736     0.36600
H841        H  0.28476488  0.99053406  0.88468146     0.16900
O842        O  0.25834671  0.01193528  0.83356816    -0.60000
H843        H  0.36008561  0.01369899  0.79854782     0.16900
O844        O  0.38646797  0.99372911  0.85022947    -0.60100
H845        H  0.39048138  0.97118985  0.84578963     0.43900
H846        H  0.25535254  0.03370794  0.84139797     0.43900
C847        C  0.31525639  0.84959958  0.96620746    -0.05200
C848        C  0.34649748  0.85795354  0.97385440    -0.32600
C849        C  0.35894486  0.88700938  0.96400636     0.36600
C850        C  0.34137551  0.90630494  0.94374609    -0.05500
C851        C  0.31363868  0.89386707  0.93045032    -0.32500
C852        C  0.30072460  0.86559643  0.94129546     0.36600
H853        H  0.35852117  0.84535797  0.99240509     0.16900
O854        O  0.38733191  0.89694338  0.97559904    -0.60000
H855        H  0.30014405  0.90746095  0.91371489     0.16900
O856        O  0.27092284  0.85749444  0.93202045    -0.60100
H857        H  0.27398131  0.84248253  0.91445155     0.43900
H858        H  0.38251780  0.90594765  0.99657430     0.43900
C859        C  0.33673426  0.22542374  0.95033434    -0.05200
C860        C  0.35917599  0.24708048  0.96091204    -0.32600
C861        C  0.34971353  0.27632986  0.97294438     0.36600
C862        C  0.31734035  0.28359325  0.97562087    -0.05500
C863        C  0.29536198  0.26334707  0.96176250    -0.32500
C864        C  0.30487055  0.23457147  0.94893102     0.36600
H865        H  0.38392512  0.24097166  0.96070909     0.16900
O866        O  0.37190196  0.29656215  0.98480337    -0.60000
H867        H  0.27042075  0.26817109  0.96403477     0.16900
O868        O  0.28239395  0.21416739  0.93804455    -0.60100
H869        H  0.27861994  0.22057180  0.91596762     0.43900
H870        H  0.37933859  0.28682944  0.00461550     0.43900
C871        C  0.33194782  0.14536969  0.86978093    -0.05200
C872        C  0.29946016  0.14147603  0.86562227    -0.32600
C873        C  0.28759367  0.13031658  0.83706504     0.36600
C874        C  0.30831705  0.12384493  0.81198127    -0.05500
C875        C  0.34026099  0.13200963  0.81497231    -0.32500
C876        C  0.35220971  0.14221758  0.84384405     0.36600
H877        H  0.28349992  0.14510254  0.88520376     0.16900
O878        O  0.25635504  0.12236291  0.83507044    -0.60000
H879        H  0.35656675  0.12666180  0.79608413     0.16900
O880        O  0.38389132  0.14744122  0.84690926    -0.60100
H881        H  0.38674690  0.17023417  0.84288545     0.43900
H882        H  0.25490865  0.10063972  0.84345501     0.43900
C883        C  0.62891314  0.28809794  0.08335053    -0.05200
C884        C  0.65210949  0.26662863  0.09267508    -0.32600
C885        C  0.64386192  0.23629493  0.10240822     0.36600
C886        C  0.61200632  0.22708532  0.10302389    -0.05500
C887        C  0.58866307  0.24964531  0.09751454    -0.32500
C888        C  0.59694118  0.28022575  0.08818517     0.36600
H889        H  0.67673608  0.27194621  0.08858196     0.16900
O890        O  0.66723457  0.21482399  0.10806423    -0.60000
H891        H  0.56403840  0.24327459  0.09940809     0.16900
O892        O  0.57375815  0.30128880  0.08041783    -0.60100
H893        H  0.56447587  0.29340444  0.06055708     0.43900
H894        H  0.67292936  0.21784123  0.13044292     0.43900
C895        C  0.61761434  0.14236122  0.17855196    -0.05200
C896        C  0.64993985  0.14154593  0.18524088    -0.32600
C897        C  0.66074477  0.12948642  0.21394462     0.36600
C898        C  0.63902569  0.11917131  0.23681953    -0.05500
C899        C  0.60668477  0.12423773  0.23153578    -0.32500
C900        C  0.59594244  0.13517979  0.20246186     0.36600
H901        H  0.66687339  0.14839313  0.16741179     0.16900
O902        O  0.69241983  0.12509111  0.21819593    -0.60000
H903        H  0.58958387  0.11611678  0.24866441     0.16900
O904        O  0.56420506  0.13755396  0.19722050    -0.60100
H905        H  0.55904783  0.15996804  0.20107360     0.43900
H906        H  0.69720109  0.10452685  0.20828033     0.43900
C907        C  0.61761047  0.22194104  0.95373345    -0.05200
C908        C  0.59509709  0.24584061  0.95607481    -0.32600
C909        C  0.60385690  0.27618096  0.96558319     0.36600
C910        C  0.63540939  0.28264466  0.97375372    -0.05500
C911        C  0.65832187  0.25950949  0.96815627    -0.32500
C912        C  0.64960548  0.22937834  0.95799640     0.36600
H913        H  0.57059501  0.24081049  0.95118558     0.16900
O914        O  0.58111196  0.29873609  0.96969884    -0.60000
H915        H  0.68257462  0.26378402  0.97470451     0.16900
O916        O  0.67236449  0.20689800  0.95379245    -0.60100
H917        H  0.67326581  0.19529492  0.97398546     0.43900
H918        H  0.56881271  0.29206516  0.98840313     0.43900
C919        C  0.63768165  0.12341362  0.81139156    -0.05200
C920        C  0.60531829  0.12776283  0.81742744    -0.32600
C921        C  0.59483048  0.13765279  0.84709699     0.36600
C922        C  0.61678954  0.14450762  0.87072291    -0.05500
C923        C  0.64897130  0.14467796  0.86321063    -0.32500
C924        C  0.65952681  0.13382896  0.83394929     0.36600
H925        H  0.58814604  0.11945000  0.80057629     0.16900
O926        O  0.56316564  0.13915422  0.85319737    -0.60000
H927        H  0.66611960  0.15106021  0.88090081     0.16900
O928        O  0.69121209  0.12979635  0.82911262    -0.60100
H929        H  0.69627027  0.10904101  0.83846148     0.43900
H930        H  0.55712123  0.16115155  0.84840038     0.43900
C931        C  0.61878631  0.91170468  0.95440043    -0.05200
C932        C  0.59615482  0.88790708  0.95702153    -0.32600
C933        C  0.60514851  0.85717970  0.96494370     0.36600
C934        C  0.63701840  0.85045385  0.97161358    -0.05500
C935        C  0.65983626  0.87339826  0.96500974    -0.32500
C936        C  0.65090916  0.90383499  0.95636726     0.36600
H937        H  0.57147072  0.89330367  0.95372794     0.16900
O938        O  0.58246510  0.83464087  0.96971778    -0.60000
H939        H  0.68435353  0.86892441  0.97033299     0.16900
O940        O  0.67362922  0.92650166  0.95280384    -0.60100
H941        H  0.68160319  0.92384905  0.93103935     0.43900
H942        H  0.57085748  0.84114453  0.98890578     0.43900
C943        C  0.62316056  0.99559694  0.87891168    -0.05200
C944        C  0.60190368  0.99664765  0.85388427    -0.32600
C945        C  0.61216858  0.00510089  0.82373992     0.36600
C946        C  0.64386586  0.01366198  0.81866645    -0.05500
C947        C  0.66561039  0.00939521  0.84306900    -0.32500
C948        C  0.65544730  0.00009296  0.87299876     0.36600
H949        H  0.57724990  0.99138387  0.85782078     0.16900
O950        O  0.59065974  0.00787658  0.79991066    -0.60000
H951        H  0.68992910  0.01640874  0.83981333     0.16900
O952        O  0.67688692  0.99776052  0.89690882    -0.60100
H953        H  0.68442539  0.97571173  0.89617867     0.43900
H954        H  0.57928112  0.02782088  0.80401793     0.43900
C955        C  0.61374576  0.98964868  0.18219755    -0.05200
C956        C  0.59209736  0.99576108  0.20628778    -0.32600
C957        C  0.60266298  0.00417665  0.23633499     0.36600
C958        C  0.63522585  0.00787812  0.24197256    -0.05500
C959        C  0.65664734  0.99759109  0.21908234    -0.32500
C960        C  0.64610582  0.98859200  0.18929914     0.36600
H961        H  0.56706898  0.99492502  0.20158036     0.16900
O962        O  0.58118861  0.01279908  0.25891675    -0.60000
H963        H  0.68169404  0.00059408  0.22279425     0.16900
O964        O  0.66779953  0.98188201  0.16632321    -0.60100
H965        H  0.67315211  0.95939541  0.16936373     0.43900
H966        H  0.57301590  0.03359764  0.25226342     0.43900
C967        C  0.61272427  0.91237833  0.09970851    -0.05200
C968        C  0.64510835  0.90633617  0.09769950    -0.32600
C969        C  0.65618632  0.87698955  0.08775766     0.36600
C970        C  0.63473119  0.85279741  0.08049127    -0.05500
C971        C  0.60243669  0.85784687  0.08635837    -0.32500
C972        C  0.59133378  0.88766058  0.09503555     0.36600
H973        H  0.66185288  0.92501675  0.10225903     0.16900
O974        O  0.68760937  0.87359591  0.08116391    -0.60000
H975        H  0.58553192  0.83971948  0.08041277     0.16900
O976        O  0.55960660  0.89251385  0.09845291    -0.60100
H977        H  0.55200944  0.89803497  0.07714110     0.43900
H978        H  0.69734838  0.86723452  0.10132345     0.43900
C979        C  0.03089097  0.40662138  0.24530517    -0.05200
C980        C  0.03499254  0.43887260  0.23885544    -0.32600
C981        C  0.04375450  0.44888938  0.20873605     0.36600
C982        C  0.05079409  0.42657337  0.18547230    -0.05500
C983        C  0.05170066  0.39457936  0.19347309    -0.32500
C984        C  0.04149464  0.38445478  0.22306377     0.36600
H985        H  0.02664010  0.45621889  0.25556478     0.16900
O986        O  0.04354215  0.48036590  0.20174992    -0.60000
H987        H  0.05805865  0.37720699  0.17593111     0.16900
O988        O  0.03702732  0.35289296  0.22803680    -0.60100
H989        H  0.05733982  0.34514915  0.23640276     0.43900
H990        H  0.06494936  0.48796181  0.20701397     0.43900
C991        C  0.18813404  0.40470493  0.08309324    -0.05200
C992        C  0.16437285  0.38250907  0.08900390    -0.32600
C993        C  0.13444398  0.39221828  0.09888992     0.36600
C994        C  0.12784236  0.42447436  0.10235013    -0.05500
C995        C  0.15233297  0.44633697  0.09956215    -0.32500
C996        C  0.18254683  0.43653280  0.09078148     0.36600
H997        H  0.16803976  0.35801601  0.08300016     0.16900
O998        O  0.11131791  0.37017379  0.10361560    -0.60000
H999        H  0.14791214  0.47106888  0.10380822     0.16900
O1000       O  0.20551697  0.45869727  0.08596498    -0.60100
H1001       H  0.21969690  0.45680715  0.10432701     0.43900
H1002       H  0.10191310  0.36659328  0.08261771     0.43900
C1003       C  0.13393135  0.42560838  0.95599074    -0.05200
C1004       C  0.14210152  0.39368824  0.95688689    -0.32600
C1005       C  0.17211896  0.38438880  0.96636314     0.36600
C1006       C  0.19474765  0.40727997  0.97427284    -0.05500
C1007       C  0.18793889  0.43917904  0.96833877    -0.32500
C1008       C  0.15746199  0.44845066  0.95993468     0.36600
H1009       H  0.12443913  0.37583472  0.95246462     0.16900
O1010       O  0.17769399  0.35308383  0.97186859    -0.60000
H1011       H  0.20496805  0.45711047  0.97450965     0.16900
O1012       O  0.15059335  0.47981175  0.95704571    -0.60100
H1013       H  0.15314078  0.48451187  0.93435226     0.43900
H1014       H  0.16954978  0.34903204  0.99337266     0.43900
C1015       C  0.04906301  0.41782233  0.88221864    -0.05200
C1016       C  0.04292458  0.43988457  0.85866944    -0.32600
C1017       C  0.03384799  0.43002202  0.82864333     0.36600
C1018       C  0.02945293  0.39769078  0.82236417    -0.05500
C1019       C  0.03904650  0.37564381  0.84493029    -0.32500
C1020       C  0.04934449  0.38558066  0.87457562     0.36600
H1021       H  0.04462447  0.46480622  0.86371470     0.16900
O1022       O  0.02593481  0.45207325  0.80646508    -0.60000
H1023       H  0.03551188  0.35075303  0.84075028     0.16900
O1024       O  0.05725284  0.36354726  0.89672295    -0.60100
H1025       H  0.08017295  0.36011680  0.89391983     0.43900
H1026       H  0.00609609  0.46180754  0.81402305     0.43900
C1027       C  0.81946621  0.42401751  0.95809601    -0.05200
C1028       C  0.79607515  0.44708350  0.96006020    -0.32600
C1029       C  0.76513130  0.43879645  0.96803223     0.36600
C1030       C  0.75773619  0.40725302  0.97542121    -0.05500
C1031       C  0.78044227  0.38392504  0.97000943    -0.32500
C1032       C  0.81104426  0.39212236  0.96097295     0.36600
H1033       H  0.80188157  0.47154144  0.95583427     0.16900
O1034       O  0.74279357  0.46186307  0.97146430    -0.60000
H1035       H  0.77540785  0.35964287  0.97592205     0.16900
O1036       O  0.83320608  0.36896190  0.95731514    -0.60100
H1037       H  0.83047058  0.36124645  0.93549806     0.43900
H1038       H  0.74880177  0.47377213  0.99057316     0.43900
C1039       C  0.89877471  0.41958747  0.87766520    -0.05200
C1040       C  0.90425925  0.44101361  0.85329705    -0.32600
C1041       C  0.91291584  0.43025720  0.82342273     0.36600
C1042       C  0.91818201  0.39783634  0.81841332    -0.05500
C1043       C  0.90873652  0.37639026  0.84161612    -0.32500
C1044       C  0.89891088  0.38711259  0.87112169     0.36600
H1045       H  0.90256149  0.46606344  0.85764560     0.16900
O1046       O  0.92120642  0.45174572  0.80082750    -0.60000
H1047       H  0.91271571  0.35144151  0.83825904     0.16900
O1048       O  0.89141188  0.36565862  0.89404271    -0.60100
H1049       H  0.91156232  0.36082778  0.90468654     0.43900
H1050       H  0.90448830  0.45028869  0.78468969     0.43900
C1051       C  0.89917600  0.42121370  0.17804893    -0.05200
C1052       C  0.90481538  0.38914997  0.18306696    -0.32600
C1053       C  0.91650642  0.37863783  0.21196856     0.36600
C1054       C  0.92132051  0.40016851  0.23668904    -0.05500
C1055       C  0.91237113  0.43172963  0.23246208    -0.32500
C1056       C  0.90182108  0.44236976  0.20324061     0.36600
H1057       H  0.90189761  0.37254366  0.16397957     0.16900
O1058       O  0.92610822  0.34797648  0.21482739    -0.60000
H1059       H  0.91679667  0.44875354  0.25088497     0.16900
O1060       O  0.89549521  0.47371868  0.19912285    -0.60100
H1061       H  0.87261002  0.47588721  0.20319481     0.43900
H1062       H  0.94781133  0.34749054  0.20617592     0.43900
C1063       C  0.75193815  0.41151324  0.08478330    -0.05200
C1064       C  0.75986102  0.44346113  0.08905007    -0.32600
C1065       C  0.79036023  0.45222092  0.09799065     0.36600
C1066       C  0.81276577  0.42897990  0.10484107    -0.05500
C1067       C  0.80330181  0.39732788  0.10557663    -0.30700
C1068       C  0.77332107  0.38844595  0.09517796     0.36600
H1069       H  0.74388091  0.46156904  0.08097783     0.16900
O1070       O  0.79849532  0.48342784  0.09827045    -0.60000
H1071       H  0.82001909  0.37919091  0.11191687     0.16900
O1072       O  0.76656221  0.35706920  0.09178841    -0.60100
H1073       H  0.77526030  0.35108898  0.07096946     0.43900
H1074       H  0.79537848  0.49032042  0.12032099     0.43900
C1075       C  0.04879766  0.70464463  0.18871559    -0.05200
C1076       C  0.04452924  0.67982218  0.21000418    -0.32600
C1077       C  0.03742202  0.68607029  0.24177156     0.36600
C1078       C  0.03282486  0.71745907  0.25198288    -0.05500
C1079       C  0.04188739  0.74185764  0.23184285    -0.32500
C1080       C  0.04961104  0.73578761  0.20053253     0.36600
H1081       H  0.04562238  0.65570908  0.20186455     0.16900
O1082       O  0.03161459  0.66155784  0.26198716    -0.60000
H1083       H  0.03857501  0.76611223  0.23894321     0.16900
O1084       O  0.05435215  0.76096257  0.18090880    -0.60100
H1085       H  0.07667975  0.76702962  0.18393994     0.43900
H1086       H  0.01218615  0.65123382  0.25425739     0.43900
C1087       C  0.10111547  0.73666865  0.09326537    -0.05200
C1088       C  0.09623955  0.75080294  0.06400239    -0.32600
C1089       C  0.12086506  0.76683607  0.04908002     0.36600
C1090       C  0.15092786  0.76785641  0.06309141    -0.05500
C1091       C  0.15487773  0.75642525  0.09355060    -0.32500
C1092       C  0.13013278  0.74118757  0.10885672     0.36600
H1093       H  0.07377923  0.74845409  0.05225032     0.16900
O1094       O  0.11636599  0.77898721  0.01953813    -0.60000
H1095       H  0.17800712  0.75647681  0.10421538     0.16900
O1096       O  0.13570890  0.72780300  0.13763837    -0.60100
H1097       H  0.13256006  0.74500532  0.15306802     0.43900
H1098       H  0.11686663  0.76069026  0.00508004     0.43900
C1099       C  0.90607594  0.70900263  0.18110625    -0.05200
C1100       C  0.91026754  0.74056322  0.18972359    -0.32600
C1101       C  0.92053760  0.74846026  0.21999161     0.36600
C1102       C  0.92532521  0.72466717  0.24261868    -0.05500
C1103       C  0.91735718  0.69346465  0.23478040    -0.32500
C1104       C  0.90855986  0.68549490  0.20412482     0.36600
H1105       H  0.90723817  0.75899663  0.17241163     0.16900
O1106       O  0.92845224  0.77909707  0.22630143    -0.60000
H1107       H  0.92135192  0.67477041  0.25160651     0.16900
O1108       O  0.90353106  0.65453279  0.19662797    -0.60100
H1109       H  0.88041623  0.65158096  0.19796523     0.43900
H1110       H  0.95082602  0.78115041  0.21989808     0.43900
C1111       C  0.82322752  0.71392804  0.10425031    -0.05200
C1112       C  0.81694379  0.74625192  0.10242385    -0.32600
C1113       C  0.78722309  0.75695893  0.09324751     0.36600
C1114       C  0.76343781  0.73513462  0.08583997    -0.05500
C1115       C  0.76844693  0.70312004  0.09259106    -0.32500
C1116       C  0.79836229  0.69239927  0.10112282     0.36600
H1117       H  0.83568270  0.76313608  0.10613551     0.16900
O1118       O  0.78319957  0.78830423  0.08685786    -0.60000
H1119       H  0.75044353  0.68600319  0.08687640     0.16900
O1120       O  0.80347093  0.66077030  0.10470835    -0.60100
H1121       H  0.79880265  0.65637300  0.12712895     0.43900
H1122       H  0.77384805  0.79728862  0.10624944     0.43900
C1123       C  0.91972056  0.72218116  0.80680269    -0.05200
C1124       C  0.91672386  0.68992636  0.81405399    -0.32600
C1125       C  0.90774404  0.68030017  0.84430285     0.36600
C1126       C  0.89925700  0.70290344  0.86686532    -0.05500
C1127       C  0.89714109  0.73457892  0.85784212    -0.32500
C1128       C  0.90765223  0.74437642  0.82823912     0.36600
H1129       H  0.92606100  0.67250294  0.79794804     0.16900
O1130       O  0.90907564  0.64903358  0.85205623    -0.60000
H1131       H  0.88957130  0.75216405  0.87467178     0.16900
O1132       O  0.90981960  0.77598777  0.82210323    -0.60100
H1133       H  0.93015325  0.78274802  0.83130435     0.43900
H1134       H  0.88767071  0.64076149  0.84789038     0.43900
C1135       C  0.82307529  0.70895524  0.95127687    -0.05200
C1136       C  0.81614143  0.74123563  0.95092339    -0.32600
C1137       C  0.78745954  0.75239136  0.96294517     0.36600
C1138       C  0.76492364  0.73104693  0.97466325    -0.05500
C1139       C  0.77040509  0.69856587  0.97090408    -0.32500
C1140       C  0.79937946  0.68750865  0.95971125     0.36600
H1141       H  0.83376685  0.75795430  0.94311598     0.16900
O1142       O  0.78288968  0.78419212  0.96582842    -0.60000
H1143       H  0.75351880  0.68176265  0.98005711     0.16900
O1144       O  0.80472189  0.65574061  0.95821999    -0.60100
H1145       H  0.80032991  0.64984215  0.93611303     0.43900
H1146       H  0.79354651  0.79021060  0.98564341     0.43900
C1147       C  0.13763707  0.69699283  0.94641924    -0.05200
C1148       C  0.15589544  0.67890375  0.96704276    -0.32600
C1149       C  0.18447936  0.69077132  0.97880845     0.36600
C1150       C  0.19383529  0.72188836  0.97140098    -0.05500
C1151       C  0.17894102  0.73698798  0.94635597    -0.32500
C1152       C  0.15087985  0.72508595  0.93411262     0.36600
H1153       H  0.14717041  0.65651034  0.97553592     0.16900
O1154       O  0.20043395  0.67421497  0.00144152    -0.60000
H1155       H  0.18586620  0.76067776  0.93992893     0.16900
O1156       O  0.13473766  0.74338752  0.91309928    -0.60100
H1157       H  0.14385980  0.73818897  0.89226050     0.43900
H1158       H  0.18618868  0.67312438  0.01992708     0.43900
C1159       C  0.02962172  0.72908881  0.81570992    -0.05200
C1160       C  0.03452546  0.74964071  0.84107484    -0.32600
C1161       C  0.04549343  0.73819257  0.86992963     0.36600
C1162       C  0.05070139  0.70575948  0.87390361    -0.05500
C1163       C  0.04874865  0.68577202  0.84786477    -0.32500
C1164       C  0.03875392  0.69733774  0.81876768     0.36600
H1165       H  0.02712280  0.77396253  0.83940677     0.16900
O1166       O  0.04901361  0.75849260  0.89472253    -0.60000
H1167       H  0.05427557  0.66102265  0.85029174     0.16900
O1168       O  0.03413775  0.67670021  0.79445734    -0.60100
H1169       H  0.05388959  0.67746462  0.78201911     0.43900
H1170       H  0.07136568  0.76517231  0.89395060     0.43900
loop_ 
_geom_bond_atom_site_label_1 
_geom_bond_atom_site_label_2 
_geom_bond_distance 
_geom_bond_site_symmetry_2 
_ccdc_geom_bond_type 
C1            N2   1.370       .  A
C1            N6   1.349       .  A
C1         C1147   1.492       .  S
N2            C3   1.372       .  A
C3            N4   1.366       .  A
C3           C51   1.490       .  S
N4            C5   1.364       .  A
C5            N6   1.345       .  A
C5         C1162   1.469       .  S
C7            N8   1.349       .  A
C7           N12   1.366       .  A
C7         C1135   1.474       .  S
N8            C9   1.350       .  A
C9           N10   1.367       .  A
C9         C1126   1.475       .  S
N10          C11   1.367       .  A
C11          N12   1.366       .  A
C11          C57   1.488       .  S
C13          N14   1.366       .  A
C13          N18   1.349       .  A
C13        C1099   1.471       .  S
N14          C15   1.366       .  A
C15          N16   1.366       .  A
C15          C74   1.486       .  S
N16          C17   1.366       .  A
C17          N18   1.349       .  A
C17        C1111   1.470       .  S
C19          N20   1.369       .  A
C19          N24   1.345       .  A
C19        C1075   1.487       .  S
N20          C21   1.373       .  A
C21          N22   1.365       .  A
C21          C80   1.487       .  S
N22          C23   1.362       .  A
C23          N24   1.344       .  A
C23        C1087   1.472       .  S
C25          N26   1.364       .  A
C25          N30   1.350       .  A
C25        C1051   1.467       .  S
N26          C27   1.364       .  A
C27          N28   1.368       .  A
C27          C77   1.488       .  S
N28          C29   1.368       .  A
C29          N30   1.351       .  A
C29        C1066   1.477       .  S
C31          N32   1.366       .  A
C31          N36   1.346       .  A
C31        C1027   1.467       .  S
N32          C33   1.367       .  A
C33          N34   1.366       .  A
C33          C54   1.483       .  S
N34          C35   1.365       .  A
C35          N36   1.346       .  A
C35        C1039   1.467       .  S
C37          N38   1.366       .  A
C37          N42   1.346       .  A
C37        C1003   1.469       .  S
N38          C39   1.368       .  A
C39          N40   1.367       .  A
C39          C60   1.488       .  S
N40          C41   1.366       .  A
C41          N42   1.346       .  A
C41        C1015   1.469       .  S
C43          N44   1.348       .  A
C43          N48   1.365       .  A
C43         C982   1.469       .  S
N44          C45   1.347       .  A
C45          N46   1.367       .  A
C45         C994   1.470       .  S
N46          C47   1.367       .  A
C47          N48   1.365       .  A
C47          C71   1.487       .  S
O49         Zr61   2.427       .  S
O49          C51   1.284       .  A
O50         Zr87   2.502   1_456  S
O50          C51   1.302       .  A
O52         Zr64   2.436       .  S
O52          C54   1.286       .  A
O53         Zr88   2.481   1_556  S
O53          C54   1.298       .  A
O55         Zr64   2.443       .  S
O55          C57   1.287       .  A
O56         Zr87   2.485   1_556  S
O56          C57   1.299       .  A
O58         Zr61   2.435       .  S
O58          C60   1.285       .  A
O59         Zr88   2.492   1_456  S
O59          C60   1.300       .  A
Zr61         O62   2.434       .  S
Zr61         O63   2.436       .  S
Zr61         O67   2.380   1_455  S
Zr61         O68   2.374   1_455  S
Zr61         O91   2.365   1_556  S
Zr61         O93   2.373   1_556  S
O62         H105   0.990       .  S
O63         H104   0.990   1_556  S
O63         H108   0.990       .  S
Zr64         O65   2.436       .  S
Zr64         O66   2.434       .  S
Zr64         O68   2.377       .  S
Zr64         O67   2.372       .  S
Zr64         O92   2.372   1_556  S
Zr64         O94   2.375   1_556  S
O65         H106   0.990       .  S
O65         H109   0.990       .  S
O66          H99   0.990       .  S
O67         Zr87   2.392   1_556  S
O68         Zr88   2.398   1_556  S
O68          H95   0.965       .  S
O69         Zr81   2.447       .  S
O69          C71   1.288       .  A
O70         Zr88   2.482   1_455  S
O70          C71   1.298       .  A
O72         Zr84   2.445       .  S
O72          C74   1.288       .  A
O73         Zr87   2.480       .  S
O73          C74   1.298       .  A
O75         Zr84   2.452       .  S
O75          C77   1.289       .  A
O76         Zr88   2.480       .  S
O76          C77   1.298       .  A
O78         Zr81   2.457       .  S
O78          C80   1.290       .  A
O79         Zr87   2.467   1_455  S
O79          C80   1.296       .  A
Zr81         O82   2.437       .  S
Zr81         O83   2.435       .  S
Zr81         O89   2.379   1_455  S
Zr81         O90   2.368   1_455  S
Zr81         O93   2.374       .  S
Zr81         O91   2.377       .  S
O82         H102   0.990   1_455  S
O82         H107   0.990       .  S
O83         H103   0.990       .  S
Zr84         O85   2.435       .  S
Zr84         O86   2.435       .  S
Zr84         O90   2.373       .  S
Zr84         O89   2.378       .  S
Zr84         O94   2.368       .  S
Zr84         O92   2.376       .  S
O85         H101   0.990       .  S
O86         H100   0.990       .  S
O86         H110   0.990       .  S
Zr87         O90   2.399       .  S
Zr87         O92   2.401       .  S
Zr87         O93   2.396   1_655  S
Zr88         O89   2.407       .  S
Zr88         O91   2.390   1_655  S
Zr88         O94   2.397       .  S
O89          H97   0.963       .  S
O92          H96   0.966       .  S
O93          H98   0.965       .  S
C111        N112   1.367   1_565  A
C111        N116   1.347       .  A
C111        C955   1.472       .  S
N112        C113   1.368   1_545  A
C113        N114   1.368       .  A
C113        C161   1.489   1_565  S
N114        C115   1.366       .  A
C115        N116   1.346       .  A
C115        C967   1.470       .  S
C117        N118   1.365   1_565  A
C117        N122   1.346       .  A
C117        C943   1.467       .  S
N118        C119   1.366   1_545  A
C119        N120   1.368       .  A
C119        C167   1.488   1_565  S
N120        C121   1.367       .  A
C121        N122   1.347       .  A
C121        C931   1.471       .  S
C123        N124   1.349       .  A
C123        N128   1.367       .  A
C123        C907   1.472       .  S
N124        C125   1.349       .  A
C125        N126   1.367       .  A
C125        C922   1.475       .  S
N126        C127   1.368       .  A
C127        N128   1.367       .  A
C127        C184   1.491       .  S
C129        N130   1.367       .  A
C129        N134   1.350       .  A
C129        C886   1.475       .  S
N130        C131   1.367       .  A
C131        N132   1.366       .  A
C131        C190   1.491       .  S
N132        C133   1.367       .  A
C133        N134   1.349       .  A
C133        C895   1.474       .  S
C135        N136   1.350       .  A
C135        N140   1.367       .  A
C135        C859   1.477       .  S
N136        C137   1.348       .  A
C137        N138   1.366       .  A
C137        C871   1.469       .  S
N138        C139   1.366       .  A
C139        N140   1.367       .  A
C139        C187   1.488       .  S
C141        N142   1.346       .  A
C141        N146   1.365   1_565  A
C141        C835   1.468       .  S
N142        C143   1.350       .  A
C143        N144   1.371       .  A
C143        C850   1.491       .  S
N144        C145   1.372       .  A
C145        N146   1.367   1_565  A
C145        C164   1.494   1_565  S
C147        N148   1.350       .  A
C147        N152   1.367   1_565  A
C147        C814   1.483       .  S
N148        C149   1.348       .  A
C149        N150   1.362       .  A
C149        C823   1.473       .  S
N150        C151   1.363   1_565  A
C151        N152   1.369       .  A
C151        C170   1.483       .  S
C153        N154   1.346       .  A
C153        N158   1.365       .  A
C153        C802   1.465       .  S
N154        C155   1.347       .  A
C155        N156   1.368       .  A
C155        C790   1.472       .  S
N156        C157   1.369       .  A
C157        N158   1.365       .  A
C157        C181   1.491       .  S
O159       Zr171   2.443       .  S
O159        C161   1.288       .  A
O160       Zr197   2.490       .  S
O160        C161   1.300       .  A
O162       Zr174   2.436       .  S
O162        C164   1.286       .  A
O163       Zr198   2.506   1_556  S
O163        C164   1.303       .  A
O165       Zr174   2.448       .  S
O165        C167   1.288       .  A
O166       Zr197   2.482   1_556  S
O166        C167   1.298       .  A
O168       Zr171   2.453       .  S
O168        C170   1.290       .  A
O169       Zr198   2.463       .  S
O169        C170   1.295       .  A
Zr171       O172   2.436   1_545  S
Zr171       O173   2.436       .  S
Zr171       O177   2.377       .  S
Zr171       O178   2.373       .  S
Zr171       O201   2.363       .  S
Zr171       O203   2.376       .  S
O172        H215   0.990       .  S
O173        H214   0.990       .  S
O173        H218   0.990       .  S
Zr174       O175   2.438   1_545  S
Zr174       O176   2.436       .  S
Zr174       O178   2.376   1_556  S
Zr174       O177   2.367   1_556  S
Zr174       O202   2.377       .  S
Zr174       O204   2.382       .  S
O175        H216   0.990   1_556  S
O175        H219   0.990       .  S
O176        H209   0.990       .  S
O177       Zr197   2.399       .  S
O178       Zr198   2.402       .  S
O178        H205   0.966       .  S
O179       Zr191   2.441       .  S
O179        C181   1.287       .  A
O180       Zr198   2.494       .  S
O180        C181   1.301       .  A
O182       Zr194   2.433       .  S
O182        C184   1.285       .  A
O183       Zr197   2.500   1_556  S
O183        C184   1.302       .  A
O185       Zr194   2.439       .  S
O185        C187   1.286       .  A
O186       Zr198   2.489   1_556  S
O186        C187   1.299       .  A
O188       Zr191   2.445       .  S
O188        C190   1.287       .  A
O189       Zr197   2.487       .  S
O189        C190   1.299       .  A
Zr191       O192   2.433       .  S
Zr191       O193   2.435       .  S
Zr191       O199   2.375       .  S
Zr191       O200   2.372       .  S
Zr191       O203   2.372       .  S
Zr191       O201   2.369       .  S
O192        H212   0.990       .  S
O192        H217   0.990       .  S
O193        H213   0.990       .  S
Zr194       O195   2.434       .  S
Zr194       O196   2.435       .  S
Zr194       O200   2.380   1_556  S
Zr194       O199   2.377   1_556  S
Zr194       O204   2.371       .  S
Zr194       O202   2.372       .  S
O195        H211   0.990       .  S
O196        H210   0.990       .  S
O196        H220   0.990       .  S
Zr197       O200   2.395       .  S
Zr197       O202   2.398   1_554  S
Zr197       O203   2.402       .  S
Zr198       O199   2.400       .  S
Zr198       O201   2.396       .  S
Zr198       O204   2.393   1_554  S
O199        H207   0.965       .  S
O202        H206   0.966       .  S
O203        H208   0.964       .  S
C221        N222   1.365   1_565  A
C221        N226   1.346       .  A
C221        C766   1.468       .  S
N222        C223   1.367   1_545  A
C223        N224   1.366       .  A
C223        C277   1.483   1_565  S
N224        C225   1.365       .  A
C225        N226   1.345       .  A
C225        C778   1.465       .  S
C227        N228   1.345       .  A
C227        N232   1.363   1_565  A
C227        C751   1.462       .  S
N228        C229   1.348       .  A
C229        N230   1.366       .  A
C229        C742   1.472       .  S
N230        C231   1.367       .  A
C231        N232   1.364   1_565  A
C231        C271   1.481   1_565  S
C233        N234   1.348       .  A
C233        N238   1.366       .  A
C233        C715   1.470       .  S
N234        C235   1.349       .  A
C235        N236   1.367       .  A
C235        C727   1.477       .  S
N236        C237   1.368       .  A
C237        N238   1.367       .  A
C237        C300   1.488       .  S
C239        N240   1.347       .  A
C239        N244   1.366       .  A
C239        C694   1.468       .  S
N240        C241   1.347       .  A
C241        N242   1.364       .  A
C241        C706   1.466       .  S
N242        C243   1.365       .  A
C243        N244   1.367       .  A
C243        C294   1.484       .  S
C245        N246   1.367       .  A
C245        N250   1.345       .  A
C245        C670   1.469       .  S
N246        C247   1.368       .  A
C247        N248   1.366       .  A
C247        C291   1.486       .  S
N248        C249   1.365       .  A
C249        N250   1.346       .  A
C249        C682   1.465       .  S
C251        N252   1.351       .  A
C251        N256   1.368       .  A
C251        C643   1.479       .  S
N252        C253   1.350       .  A
C253        N254   1.366       .  A
C253        C655   1.474       .  S
N254        C255   1.367       .  A
C255        N256   1.368       .  A
C255        C280   1.492   1_565  S
C257        N258   1.367       .  A
C257        N262   1.348       .  A
C257        C619   1.473       .  S
N258        C259   1.367       .  A
C259        N260   1.368       .  A
C259        C274   1.490   1_565  S
N260        C261   1.367       .  A
C261        N262   1.348       .  A
C261        C634   1.474       .  S
C263        N264   1.349       .  A
C263        N268   1.368       .  A
C263        C598   1.476       .  S
N264        C265   1.348       .  A
C265        N266   1.366       .  A
C265        C610   1.470       .  S
N266        C267   1.366       .  A
C267        N268   1.368       .  A
C267        C297   1.491       .  S
O269       Zr281   2.440       .  S
O269        C271   1.286       .  A
O270       Zr307   2.475       .  S
O270        C271   1.297       .  A
O272       Zr284   2.444       .  S
O272        C274   1.287       .  A
O273       Zr308   2.489   1_455  S
O273        C274   1.300       .  A
O275       Zr284   2.440       .  S
O275        C277   1.287       .  A
O276       Zr307   2.478   1_455  S
O276        C277   1.297       .  A
O278       Zr281   2.437       .  S
O278        C280   1.286       .  A
O279       Zr308   2.499       .  S
O279        C280   1.302       .  A
Zr281       O282   2.436   1_545  S
Zr281       O283   2.436       .  S
Zr281       O287   2.370       .  S
Zr281       O288   2.376       .  S
Zr281       O311   2.376       .  S
Zr281       O313   2.374       .  S
O282        H325   0.990       .  S
O283        H324   0.990       .  S
O283        H328   0.990   1_545  S
Zr284       O285   2.436   1_545  S
Zr284       O286   2.435       .  S
Zr284       O288   2.375   1_455  S
Zr284       O287   2.373   1_455  S
Zr284       O312   2.376       .  S
Zr284       O314   2.378       .  S
O285        H326   0.990       .  S
O285        H329   0.990       .  S
O286        H319   0.990       .  S
O287       Zr307   2.395       .  S
O288       Zr308   2.403       .  S
O288        H315   0.964   1_545  S
O289       Zr301   2.436       .  S
O289        C291   1.286       .  A
O290       Zr308   2.487       .  S
O290        C291   1.299       .  A
O292       Zr304   2.447       .  S
O292        C294   1.288       .  A
O293       Zr307   2.472   1_455  S
O293        C294   1.296       .  A
O295       Zr304   2.441       .  S
O295        C297   1.287       .  A
O296       Zr308   2.494   1_455  S
O296        C297   1.301       .  A
O298       Zr301   2.435       .  S
O298        C300   1.285       .  A
O299       Zr307   2.489       .  S
O299        C300   1.299       .  A
Zr301       O302   2.435       .  S
Zr301       O303   2.434       .  S
Zr301       O309   2.372       .  S
Zr301       O310   2.373       .  S
Zr301       O313   2.372       .  S
Zr301       O311   2.373       .  S
O302        H322   0.990       .  S
O302        H327   0.990       .  S
O303        H323   0.990       .  S
Zr304       O305   2.433       .  S
Zr304       O306   2.435       .  S
Zr304       O310   2.374   1_455  S
Zr304       O309   2.375   1_455  S
Zr304       O314   2.379       .  S
Zr304       O312   2.369       .  S
O305        H321   0.990   1_455  S
O306        H320   0.990       .  S
O306        H330   0.990       .  S
Zr307       O310   2.394       .  S
Zr307       O312   2.402   1_655  S
Zr307       O313   2.396       .  S
Zr308       O309   2.402       .  S
Zr308       O311   2.397       .  S
Zr308       O314   2.404   1_655  S
O309        H317   0.965       .  S
O312        H316   0.967       .  S
O313        H318   0.964       .  S
C331       C1054   1.480       .  S
C331        C332   1.387       .  A
C331        C336   1.413       .  A
C332        C333   1.391   1_655  A
C332        H351   1.087       .  S
C333        C979   1.480       .  S
C333        C334   1.414       .  A
C334        C335   1.423   1_455  A
C334        C341   1.405       .  A
C335        C336   1.424       .  A
C335        C340   1.418       .  A
C336        C337   1.404       .  A
C337        C338   1.397       .  A
C337        H347   1.083       .  S
C338        C339   1.405       .  A
C338        H348   1.083       .  S
C339        C340   1.425       .  A
C339        C346   1.414       .  A
C340        C343   1.425   1_655  A
C341        C342   1.397       .  A
C341        H349   1.083       .  S
C342        C343   1.405       .  A
C342        H350   1.083       .  S
C343        C344   1.414       .  A
C344        C595   1.485       .  S
C344        C345   1.390   1_455  A
C345        C346   1.390       .  A
C345        H352   1.087       .  S
C346        C667   1.483       .  S
C353        C787   1.487       .  S
C353        C354   1.392       .  A
C353        C358   1.415       .  A
C354        C355   1.393       .  A
C354        H373   1.084       .  S
C355        C811   1.493       .  S
C355        C356   1.418       .  A
C356        C357   1.424       .  A
C356        C363   1.406       .  A
C357        C358   1.423       .  A
C357        C362   1.420       .  A
C358        C359   1.405       .  A
C359        C360   1.397       .  A
C359        H369   1.083       .  S
C360        C361   1.404       .  A
C360        H370   1.083       .  S
C361        C362   1.426       .  A
C361        C368   1.413       .  A
C362        C365   1.426       .  A
C363        C364   1.399       .  A
C363        H371   1.083   1_545  S
C364        C365   1.404       .  A
C364        H372   1.083   1_545  S
C365        C366   1.415       .  A
C366        C622   1.481       .  S
C366        C367   1.388       .  A
C367        C368   1.387       .  A
C367        H374   1.087       .  S
C368        C607   1.480       .  S
C375        C991   1.484       .  S
C375        C376   1.390       .  A
C375        C380   1.414       .  A
C376        C377   1.392       .  A
C376        H395   1.086       .  S
C377       C1006   1.481   1_554  S
C377        C378   1.413       .  A
C378        C379   1.421       .  A
C378        C385   1.405   1_554  A
C379        C380   1.425       .  A
C379        C384   1.417       .  A
C380        C381   1.404       .  A
C381        C382   1.396       .  A
C381        H391   1.083       .  S
C382        C383   1.405       .  A
C382        H392   1.083       .  S
C383        C384   1.422       .  A
C383        C390   1.410       .  A
C384        C387   1.426       .  A
C385        C386   1.398       .  A
C385        H393   1.083       .  S
C386        C387   1.405   1_556  A
C386        H394   1.083       .  S
C387        C388   1.416       .  A
C388        C862   1.485   1_554  S
C388        C389   1.389       .  A
C389        C390   1.390       .  A
C389        H396   1.087       .  S
C390        C799   1.477       .  S
C397        C958   1.479       .  S
C397        C398   1.390       .  A
C397        C402   1.414       .  A
C398        C399   1.387       .  A
C398        H417   1.087       .  S
C399        C898   1.487       .  S
C399        C400   1.415       .  A
C400        C401   1.428       .  A
C400        C407   1.403       .  A
C401        C402   1.424       .  A
C401        C406   1.419       .  A
C402        C403   1.406       .  A
C403        C404   1.400       .  A
C403        H413   1.083   1_545  S
C404        C405   1.405       .  A
C404        H414   1.083   1_545  S
C405        C406   1.427       .  A
C405        C412   1.419       .  A
C406        C409   1.422       .  A
C407        C408   1.397       .  A
C407        H415   1.083       .  S
C408        C409   1.405       .  A
C408        H416   1.083       .  S
C409        C410   1.412       .  A
C410        C679   1.478       .  S
C410        C411   1.390       .  A
C411        C412   1.391       .  A
C411        H418   1.086       .  S
C412        C646   1.491       .  S
C419       C1078   1.490       .  S
C419        C420   1.394   1_455  A
C419        C424   1.421       .  A
C420        C421   1.392       .  A
C420        H439   1.085       .  S
C421       C1102   1.489       .  S
C421        C422   1.415       .  A
C422        C423   1.422       .  A
C422        C429   1.405       .  A
C423        C424   1.425   1_655  A
C423        C428   1.421       .  A
C424        C425   1.406       .  A
C425        C426   1.400       .  A
C425        H435   1.083       .  S
C426        C427   1.405       .  A
C426        H436   1.083       .  S
C427        C428   1.425   1_455  A
C427        C434   1.416       .  A
C428        C431   1.427       .  A
C429        C430   1.398       .  A
C429        H437   1.083       .  S
C430        C431   1.404       .  A
C430        H438   1.083       .  S
C431        C432   1.416       .  A
C432        C658   1.485       .  S
C432        C433   1.388       .  A
C433        C434   1.389   1_655  A
C433        H440   1.087       .  S
C434        C631   1.484       .  S
C441        C838   1.478       .  S
C441        C442   1.389       .  A
C441        C446   1.414       .  A
C442        C443   1.389       .  A
C442        H461   1.087       .  S
C443        C874   1.477       .  S
C443        C444   1.411       .  A
C444        C445   1.423       .  A
C444        C451   1.404       .  A
C445        C446   1.423       .  A
C445        C450   1.416       .  A
C446        C447   1.405       .  A
C447        C448   1.399       .  A
C447        H457   1.083   1_545  S
C448        C449   1.405       .  A
C448        H458   1.083   1_545  S
C449        C450   1.422       .  A
C449        C456   1.414       .  A
C450        C453   1.422       .  A
C451        C452   1.397       .  A
C451        H459   1.083       .  S
C452        C453   1.404       .  A
C452        H460   1.083       .  S
C453        C454   1.412       .  A
C454        C703   1.480       .  S
C454        C455   1.389       .  A
C455        C456   1.391       .  A
C455        H462   1.086       .  S
C456        C763   1.480       .  S
C463       C1018   1.481       .  S
C463        C464   1.388   1_455  A
C463        C468   1.414       .  A
C464        C465   1.388       .  A
C464        H483   1.087       .  S
C465       C1042   1.476       .  S
C465        C466   1.411       .  A
C466        C467   1.424       .  A
C466        C473   1.405       .  A
C467        C468   1.426   1_655  A
C467        C472   1.417       .  A
C468        C469   1.405       .  A
C469        C470   1.399       .  A
C469        H479   1.083       .  S
C470        C471   1.405       .  A
C470        H480   1.083       .  S
C471        C472   1.422   1_455  A
C471        C478   1.413       .  A
C472        C475   1.424       .  A
C473        C474   1.397       .  A
C473        H481   1.083       .  S
C474        C475   1.404       .  A
C474        H482   1.083       .  S
C475        C476   1.414       .  A
C476        C718   1.481       .  S
C476        C477   1.389       .  A
C477        C478   1.391   1_655  A
C477        H484   1.087       .  S
C478        C691   1.479       .  S
C485       C1090   1.473       .  S
C485        C486   1.384       .  A
C485        C490   1.404       .  A
C486        C487   1.393   1_554  A
C486        H505   1.086       .  S
C487       C1150   1.487       .  S
C487        C488   1.421       .  A
C488        C489   1.426   1_556  A
C488        C495   1.407       .  A
C489        C490   1.422       .  A
C489        C494   1.417       .  A
C490        C491   1.403       .  A
C491        C492   1.391       .  A
C491        H501   1.083       .  S
C492        C493   1.403       .  A
C492        H502   1.082       .  S
C493        C494   1.424       .  A
C493        C500   1.406       .  A
C494        C497   1.425   1_554  A
C495        C496   1.403       .  A
C495        H503   1.083       .  S
C496        C497   1.407       .  A
C496        H504   1.083       .  S
C497        C498   1.419       .  A
C498        C847   1.486       .  S
C498        C499   1.393   1_556  A
C499        C500   1.385       .  A
C499        H506   1.086       .  S
C500        C826   1.477       .  S
C507       C1030   1.481   1_554  S
C507        C508   1.390       .  A
C507        C512   1.414       .  A
C508        C509   1.391       .  A
C508        H527   1.086       .  S
C509       C1063   1.488       .  S
C509        C510   1.416       .  A
C510        C511   1.425       .  A
C510        C517   1.404       .  A
C511        C512   1.423       .  A
C511        C516   1.419       .  A
C512        C513   1.406   1_554  A
C513        C514   1.398       .  A
C513        H523   1.083       .  S
C514        C515   1.404       .  A
C514        H524   1.083       .  S
C515        C516   1.426   1_556  A
C515        C522   1.416       .  A
C516        C519   1.423       .  A
C517        C518   1.398       .  A
C517        H525   1.083       .  S
C518        C519   1.405       .  A
C518        H526   1.083       .  S
C519        C520   1.415       .  A
C520        C883   1.482       .  S
C520        C521   1.390       .  A
C521        C522   1.389   1_554  A
C521        H528   1.086       .  S
C522        C910   1.485       .  S
C529       C1159   1.482       .  S
C529        C530   1.388   1_455  A
C529        C534   1.413       .  A
C530        C531   1.392       .  A
C530        H549   1.087       .  S
C531       C1123   1.485       .  S
C531        C532   1.416       .  A
C532        C533   1.424       .  A
C532        C539   1.406       .  A
C533        C534   1.425   1_655  A
C533        C538   1.419       .  A
C534        C535   1.405       .  A
C535        C536   1.398       .  A
C535        H545   1.083       .  S
C536        C537   1.404       .  A
C536        H546   1.083       .  S
C537        C538   1.425   1_455  A
C537        C544   1.412       .  A
C538        C541   1.426       .  A
C539        C540   1.398       .  A
C539        H547   1.083       .  S
C540        C541   1.404       .  A
C540        H548   1.083       .  S
C541        C542   1.415       .  A
C542        C739   1.482       .  S
C542        C543   1.387       .  A
C543        C544   1.386   1_655  A
C543        H550   1.088       .  S
C544        C775   1.478       .  S
C551        C919   1.483       .  S
C551        C552   1.390       .  A
C551        C556   1.416       .  A
C552        C553   1.388       .  A
C552        H571   1.087       .  S
C553        C946   1.479       .  S
C553        C554   1.411       .  A
C554        C555   1.425       .  A
C554        C561   1.403       .  A
C555        C556   1.424       .  A
C555        C560   1.418       .  A
C556        C557   1.406       .  A
C557        C558   1.401       .  A
C557        H567   1.083       .  S
C558        C559   1.405       .  A
C558        H568   1.083       .  S
C559        C560   1.426       .  A
C559        C566   1.419       .  A
C560        C563   1.422       .  A
C561        C562   1.395       .  A
C561        H569   1.083   1_545  S
C562        C563   1.405       .  A
C562        H570   1.083   1_545  S
C563        C564   1.409       .  A
C564        C754   1.476       .  S
C564        C565   1.388       .  A
C565        C566   1.391       .  A
C565        H572   1.087       .  S
C566        C730   1.487       .  S
C573       C1138   1.487   1_554  S
C573        C574   1.389       .  A
C573        C578   1.417       .  A
C574        C575   1.390       .  A
C574        H593   1.087       .  S
C575       C1114   1.478       .  S
C575        C576   1.412       .  A
C576        C577   1.423       .  A
C576        C583   1.405       .  A
C577        C578   1.427       .  A
C577        C582   1.419       .  A
C578        C579   1.405   1_554  A
C579        C580   1.399       .  A
C579        H589   1.083       .  S
C580        C581   1.405       .  A
C580        H590   1.083       .  S
C581        C582   1.423   1_556  A
C581        C588   1.415       .  A
C582        C585   1.425       .  A
C583        C584   1.397       .  A
C583        H591   1.083       .  S
C584        C585   1.404       .  A
C584        H592   1.083       .  S
C585        C586   1.415       .  A
C586        C970   1.485       .  S
C586        C587   1.388       .  A
C587        C588   1.391   1_554  A
C587        H594   1.086       .  S
C588        C934   1.482       .  S
C595        C596   1.411       .  A
C595        C600   1.408       .  A
C596        C597   1.402       .  A
C596        H601   1.084       .  S
C597        C598   1.404       .  A
C597        O602   1.371       .  S
C598        C599   1.405       .  A
C599        C600   1.400       .  A
C599        H603   1.084       .  S
C600        O604   1.372       .  S
O602        H606   0.992       .  S
O604        H605   0.992       .  S
C607        C608   1.404       .  A
C607        C612   1.413       .  A
C608        C609   1.402       .  A
C608        H613   1.084       .  S
C609        C610   1.409       .  A
C609        O614   1.372       .  S
C610        C611   1.399       .  A
C611        C612   1.398       .  A
C611        H615   1.084       .  S
C612        O616   1.372       .  S
O614        H618   0.992       .  S
O616        H617   0.991       .  S
C619        C620   1.399       .  A
C619        C624   1.410       .  A
C620        C621   1.402   1_565  A
C620        H625   1.084       .  S
C621        C622   1.414       .  A
C621        O626   1.373       .  S
C622        C623   1.403   1_545  A
C623        C624   1.401       .  A
C623        H627   1.084   1_565  S
C624        O628   1.372       .  S
O626        H630   0.992       .  S
O628        H629   0.992       .  S
C631        C632   1.410       .  A
C631        C636   1.409       .  A
C632        C633   1.402       .  A
C632        H637   1.084       .  S
C633        C634   1.404       .  A
C633        O638   1.371       .  S
C634        C635   1.404       .  A
C635        C636   1.402       .  A
C635        H639   1.084       .  S
C636        O640   1.372       .  S
O638        H642   0.992       .  S
O640        H641   0.992       .  S
C643        C644   1.405       .  A
C643        C648   1.404       .  A
C644        C645   1.403       .  A
C644        H649   1.084       .  S
C645        C646   1.410   1_565  A
C645        O650   1.371   1_565  S
C646        C647   1.412       .  A
C647        C648   1.403   1_545  A
C647        H651   1.084       .  S
C648        O652   1.371       .  S
O650        H654   0.992   1_545  S
O652        H653   0.992       .  S
C655        C656   1.400       .  A
C655        C660   1.408       .  A
C656        C657   1.403       .  A
C656        H661   1.084       .  S
C657        C658   1.414       .  A
C657        O662   1.373       .  S
C658        C659   1.403       .  A
C659        C660   1.402       .  A
C659        H663   1.084       .  S
C660        O664   1.372       .  S
O662        H666   0.992       .  S
O664        H665   0.992       .  S
C667        C668   1.410       .  A
C667        C672   1.409       .  A
C668        C669   1.400       .  A
C668        H673   1.084       .  S
C669        C670   1.403       .  A
C669        O674   1.371       .  S
C670        C671   1.403       .  A
C671        C672   1.401       .  A
C671        H675   1.084       .  S
C672        O676   1.372       .  S
O674        H678   0.992       .  S
O676        H677   0.992       .  S
C679        C680   1.402       .  A
C679        C684   1.412       .  A
C680        C681   1.397       .  A
C680        H685   1.084       .  S
C681        C682   1.407       .  A
C681        O686   1.372       .  S
C682        C683   1.400       .  A
C683        C684   1.400       .  A
C683        H687   1.084       .  S
C684        O688   1.371       .  S
O686        H690   0.992       .  S
O688        H689   0.992       .  S
C691        C692   1.408       .  A
C691        C696   1.409       .  A
C692        C693   1.401       .  A
C692        H697   1.084       .  S
C693        C694   1.404       .  A
C693        O698   1.371       .  S
C694        C695   1.402       .  A
C695        C696   1.399       .  A
C695        H699   1.084       .  S
C696        O700   1.372       .  S
O698        H702   0.992       .  S
O700        H701   0.991       .  S
C703        C704   1.404       .  A
C703        C708   1.412       .  A
C704        C705   1.398       .  A
C704        H709   1.084       .  S
C705        C706   1.406       .  A
C705        O710   1.372       .  S
C706        C707   1.399       .  A
C707        C708   1.401       .  A
C707        H711   1.084       .  S
C708        O712   1.373       .  S
O710        H714   0.992       .  S
O712        H713   0.992       .  S
C715        C716   1.401       .  A
C715        C720   1.406       .  A
C716        C717   1.404       .  A
C716        H721   1.084       .  S
C717        C718   1.412       .  A
C717        O722   1.373       .  S
C718        C719   1.404       .  A
C719        C720   1.399       .  A
C719        H723   1.084       .  S
C720        O724   1.372       .  S
O722        H726   0.992       .  S
O724        H725   0.991       .  S
C727        C728   1.399       .  A
C727        C732   1.411       .  A
C728        C729   1.404       .  A
C728        H733   1.084       .  S
C729        C730   1.415       .  A
C729        O734   1.373       .  S
C730        C731   1.403       .  A
C731        C732   1.401       .  A
C731        H735   1.084       .  S
C732        O736   1.372       .  S
O734        H738   0.992       .  S
O736        H737   0.992       .  S
C739        C740   1.412       .  A
C739        C744   1.407       .  A
C740        C741   1.403       .  A
C740        H745   1.084       .  S
C741        C742   1.404       .  A
C741        O746   1.372       .  S
C742        C743   1.404       .  A
C743        C744   1.398       .  A
C743        H747   1.084       .  S
C744        O748   1.371       .  S
O746        H750   0.992       .  S
O748        H749   0.991       .  S
C751        C752   1.401       .  A
C751        C756   1.403       .  A
C752        C753   1.399   1_565  A
C752        H757   1.084       .  S
C753        C754   1.410       .  A
C753        O758   1.372       .  S
C754        C755   1.406       .  A
C755        C756   1.397   1_545  A
C755        H759   1.084       .  S
C756        O760   1.371       .  S
O758        H762   0.992       .  S
O760        H761   0.992       .  S
C763        C764   1.403       .  A
C763        C768   1.414       .  A
C764        C765   1.397   1_545  A
C764        H769   1.084       .  S
C765        C766   1.409       .  A
C765        O770   1.372       .  S
C766        C767   1.400       .  A
C767        C768   1.401   1_565  A
C767        H771   1.084       .  S
C768        O772   1.371       .  S
O770        H774   0.992   1_565  S
O772        H773   0.991   1_545  S
C775        C776   1.404       .  A
C775        C780   1.412       .  A
C776        C777   1.401       .  A
C776        H781   1.084       .  S
C777        C778   1.407       .  A
C777        O782   1.372       .  S
C778        C779   1.399       .  A
C779        C780   1.399       .  A
C779        H783   1.084       .  S
C780        O784   1.371       .  S
O782        H786   0.992       .  S
O784        H785   0.991       .  S
C787        C788   1.403       .  A
C787        C792   1.415       .  A
C788        C789   1.399       .  A
C788        H793   1.084       .  S
C789        C790   1.409       .  A
C789        O794   1.372       .  S
C790        C791   1.400       .  A
C791        C792   1.401       .  A
C791        H795   1.084       .  S
C792        O796   1.372       .  S
O794        H798   0.992       .  S
O796        H797   0.991       .  S
C799        C800   1.407       .  A
C799        C804   1.409       .  A
C800        C801   1.397       .  A
C800        H805   1.084       .  S
C801        C802   1.403       .  A
C801        O806   1.371       .  S
C802        C803   1.402       .  A
C803        C804   1.400       .  A
C803        H807   1.084       .  S
C804        O808   1.372       .  S
O806        H810   0.992       .  S
O808        H809   0.992       .  S
C811        C812   1.415       .  A
C811        C816   1.408       .  A
C812        C813   1.406   1_545  A
C812        H817   1.084       .  S
C813        C814   1.405       .  A
C813        O818   1.371   1_565  S
C814        C815   1.407       .  A
C815        C816   1.396   1_565  A
C815        H819   1.084       .  S
C816        O820   1.372       .  S
O818        H822   0.992       .  S
O820        H821   0.992   1_545  S
C823        C824   1.408       .  A
C823        C828   1.404       .  A
C824        C825   1.397       .  A
C824        H829   1.084       .  S
C825        C826   1.403       .  A
C825        O830   1.372       .  S
C826        C827   1.408       .  A
C827        C828   1.398       .  A
C827        H831   1.084       .  S
C828        O832   1.372       .  S
O830        H834   0.991       .  S
O832        H833   0.992       .  S
C835        C836   1.402       .  A
C835        C840   1.404       .  A
C836        C837   1.400   1_565  A
C836        H841   1.084       .  S
C837        C838   1.409       .  A
C837        O842   1.372       .  S
C838        C839   1.408       .  A
C839        C840   1.400   1_545  A
C839        H843   1.084       .  S
C840        O844   1.371       .  S
O842        H846   0.992       .  S
O844        H845   0.992       .  S
C847        C848   1.413       .  A
C847        C852   1.405       .  A
C848        C849   1.407       .  A
C848        H853   1.084       .  S
C849        C850   1.407       .  A
C849        O854   1.371       .  S
C850        C851   1.412       .  A
C851        C852   1.399       .  A
C851        H855   1.083       .  S
C852        O856   1.371       .  S
O854        H858   0.992       .  S
O856        H857   0.991       .  S
C859        C860   1.401       .  A
C859        C864   1.411       .  A
C860        C861   1.404       .  A
C860        H865   1.084       .  S
C861        C862   1.415       .  A
C861        O866   1.373       .  S
C862        C863   1.401       .  A
C863        C864   1.399       .  A
C863        H867   1.084       .  S
C864        O868   1.372       .  S
O866        H870   0.992   1_556  S
O868        H869   0.992       .  S
C871        C872   1.402       .  A
C871        C876   1.404       .  A
C872        C873   1.400       .  A
C872        H877   1.084       .  S
C873        C874   1.409       .  A
C873        O878   1.373       .  S
C874        C875   1.407       .  A
C875        C876   1.400       .  A
C875        H879   1.084       .  S
C876        O880   1.371       .  S
O878        H882   0.992       .  S
O880        H881   0.992       .  S
C883        C884   1.402       .  A
C883        C888   1.413       .  A
C884        C885   1.399       .  A
C884        H889   1.084       .  S
C885        C886   1.409       .  A
C885        O890   1.372       .  S
C886        C887   1.401       .  A
C887        C888   1.404       .  A
C887        H891   1.083       .  S
C888        O892   1.373       .  S
O890        H894   0.992       .  S
O892        H893   0.992       .  S
C895        C896   1.404       .  A
C895        C900   1.404       .  A
C896        C897   1.404       .  A
C896        H901   1.084       .  S
C897        C898   1.409       .  A
C897        O902   1.372       .  S
C898        C899   1.410       .  A
C899        C900   1.400       .  A
C899        H903   1.084       .  S
C900        O904   1.372       .  S
O902        H906   0.992       .  S
O904        H905   0.992       .  S
C907        C908   1.400       .  A
C907        C912   1.408       .  A
C908        C909   1.403       .  A
C908        H913   1.084       .  S
C909        C910   1.413       .  A
C909        O914   1.373       .  S
C910        C911   1.405       .  A
C911        C912   1.402       .  A
C911        H915   1.084       .  S
C912        O916   1.372       .  S
O914        H918   0.992       .  S
O916        H917   0.992       .  S
C919        C920   1.411       .  A
C919        C924   1.409       .  A
C920        C921   1.402       .  A
C920        H925   1.084       .  S
C921        C922   1.404       .  A
C921        O926   1.371       .  S
C922        C923   1.404       .  A
C923        C924   1.400       .  A
C923        H927   1.084       .  S
C924        O928   1.372       .  S
O926        H930   0.992       .  S
O928        H929   0.992       .  S
C931        C932   1.400       .  A
C931        C936   1.409       .  A
C932        C933   1.403       .  A
C932        H937   1.084       .  S
C933        C934   1.414       .  A
C933        O938   1.373       .  S
C934        C935   1.403       .  A
C935        C936   1.399       .  A
C935        H939   1.084       .  S
C936        O940   1.372       .  S
O938        H942   0.992       .  S
O940        H941   0.992       .  S
C943        C944   1.399       .  A
C943        C948   1.407   1_565  A
C944        C945   1.400   1_565  A
C944        H949   1.084       .  S
C945        C946   1.411       .  A
C945        O950   1.373       .  S
C946        C947   1.404       .  A
C947        C948   1.400       .  A
C947        H951   1.084       .  S
C948        O952   1.372   1_545  S
O950        H954   0.992       .  S
O952        H953   0.992       .  S
C955        C956   1.400       .  A
C955        C960   1.410       .  A
C956        C957   1.403   1_565  A
C956        H961   1.084       .  S
C957        C958   1.414       .  A
C957        O962   1.373       .  S
C958        C959   1.401   1_545  A
C959        C960   1.399       .  A
C959        H963   1.084   1_565  S
C960        O964   1.372       .  S
O962        H966   0.992       .  S
O964        H965   0.992       .  S
C967        C968   1.403       .  A
C967        C972   1.404       .  A
C968        C969   1.399       .  A
C968        H973   1.084       .  S
C969        C970   1.409       .  A
C969        O974   1.371       .  S
C970        C971   1.411       .  A
C971        C972   1.402       .  A
C971        H975   1.084       .  S
C972        O976   1.371       .  S
O974        H978   0.991       .  S
O976        H977   0.992       .  S
C979        C980   1.409       .  A
C979        C984   1.409       .  A
C980        C981   1.400       .  A
C980        H985   1.084       .  S
C981        C982   1.403       .  A
C981        O986   1.371       .  S
C982        C983   1.403       .  A
C983        C984   1.398       .  A
C983        H987   1.084       .  S
C984        O988   1.372       .  S
O986        H990   0.991       .  S
O988        H989   0.991       .  S
C991        C992   1.404       .  A
C991        C996   1.413       .  A
C992        C993   1.401       .  A
C992        H997   1.084       .  S
C993        C994   1.408       .  A
C993        O998   1.372       .  S
C994        C995   1.400       .  A
C995        C996   1.400       .  A
C995        H999   1.084       .  S
C996       O1000   1.371       .  S
O998       H1002   0.992       .  S
O1000      H1001   0.992       .  S
C1003      C1004   1.402       .  A
C1003      C1008   1.404       .  A
C1004      C1005   1.397       .  A
C1004      H1009   1.084       .  S
C1005      C1006   1.409       .  A
C1005      O1010   1.373       .  S
C1006      C1007   1.410       .  A
C1007      C1008   1.402       .  A
C1007      H1011   1.084       .  S
C1008      O1012   1.371       .  S
O1010      H1014   0.992       .  S
O1012      H1013   0.992       .  S
C1015      C1016   1.398       .  A
C1015      C1020   1.409       .  A
C1016      C1017   1.400       .  A
C1016      H1021   1.084       .  S
C1017      C1018   1.413       .  A
C1017      O1022   1.373       .  S
C1018      C1019   1.404       .  A
C1019      C1020   1.402       .  A
C1019      H1023   1.084       .  S
C1020      O1024   1.372       .  S
O1022      H1026   0.992       .  S
O1024      H1025   0.992       .  S
C1027      C1028   1.399       .  A
C1027      C1032   1.408       .  A
C1028      C1029   1.402       .  A
C1028      H1033   1.084       .  S
C1029      C1030   1.413       .  A
C1029      O1034   1.373       .  S
C1030      C1031   1.403       .  A
C1031      C1032   1.399       .  A
C1031      H1035   1.084       .  S
C1032      O1036   1.372       .  S
O1034      H1038   0.992       .  S
O1036      H1037   0.992       .  S
C1039      C1040   1.399       .  A
C1039      C1044   1.409       .  A
C1040      C1041   1.399       .  A
C1040      H1045   1.084       .  S
C1041      C1042   1.413       .  A
C1041      O1046   1.372       .  S
C1042      C1043   1.402       .  A
C1043      C1044   1.398       .  A
C1043      H1047   1.084       .  S
C1044      O1048   1.372       .  S
O1046      H1050   0.992       .  S
O1048      H1049   0.992       .  S
C1051      C1052   1.401       .  A
C1051      C1056   1.404       .  A
C1052      C1053   1.401       .  A
C1052      H1057   1.084       .  S
C1053      C1054   1.410       .  A
C1053      O1058   1.372       .  S
C1054      C1055   1.407       .  A
C1055      C1056   1.399       .  A
C1055      H1059   1.084       .  S
C1056      O1060   1.372       .  S
O1058      H1062   0.992       .  S
O1060      H1061   0.992       .  S
C1063      C1064   1.411       .  A
C1063      C1068   1.410       .  A
C1064      C1065   1.402       .  A
C1064      H1069   1.084       .  S
C1065      C1066   1.404       .  A
C1065      O1070   1.371       .  S
C1066      C1067   1.405       .  A
C1067      C1068   1.402       .  A
C1067      H1071   1.084       .  S
C1068      O1072   1.372       .  S
O1070      H1074   0.992       .  S
O1072      H1073   0.992       .  S
C1075      C1076   1.402       .  A
C1075      C1080   1.417       .  A
C1076      C1077   1.410       .  A
C1076      H1081   1.083       .  S
C1077      C1078   1.417       .  A
C1077      O1082   1.373       .  S
C1078      C1079   1.399       .  A
C1079      C1080   1.395       .  A
C1079      H1083   1.084       .  S
C1080      O1084   1.372       .  S
O1082      H1086   0.992       .  S
O1084      H1085   0.992       .  S
C1087      C1088   1.399       .  A
C1087      C1092   1.415       .  A
C1088      C1089   1.399       .  A
C1088      H1093   1.084       .  S
C1089      C1090   1.412       .  A
C1089      O1094   1.373       .  S
C1090      C1091   1.395       .  A
C1091      C1092   1.394       .  A
C1091      H1095   1.084       .  S
C1092      O1096   1.372       .  S
O1094      H1098   0.992       .  S
O1096      H1097   0.992       .  S
C1099      C1100   1.403       .  A
C1099      C1104   1.404       .  A
C1100      C1101   1.402       .  A
C1100      H1105   1.084       .  S
C1101      C1102   1.412       .  A
C1101      O1106   1.372       .  S
C1102      C1103   1.409       .  A
C1103      C1104   1.400       .  A
C1103      H1107   1.084       .  S
C1104      O1108   1.372       .  S
O1106      H1110   0.992       .  S
O1108      H1109   0.992       .  S
C1111      C1112   1.403       .  A
C1111      C1116   1.404       .  A
C1112      C1113   1.400       .  A
C1112      H1117   1.084       .  S
C1113      C1114   1.408       .  A
C1113      O1118   1.371       .  S
C1114      C1115   1.408       .  A
C1115      C1116   1.400       .  A
C1115      H1119   1.084       .  S
C1116      O1120   1.371       .  S
O1118      H1122   0.991       .  S
O1120      H1121   0.992       .  S
C1123      C1124   1.412       .  A
C1123      C1128   1.408       .  A
C1124      C1125   1.402       .  A
C1124      H1129   1.084       .  S
C1125      C1126   1.405       .  A
C1125      O1130   1.371       .  S
C1126      C1127   1.404       .  A
C1127      C1128   1.399       .  A
C1127      H1131   1.084       .  S
C1128      O1132   1.372       .  S
O1130      H1134   0.992       .  S
O1132      H1133   0.992       .  S
C1135      C1136   1.404       .  A
C1135      C1140   1.404       .  A
C1136      C1137   1.403       .  A
C1136      H1141   1.084       .  S
C1137      C1138   1.409       .  A
C1137      O1142   1.372       .  S
C1138      C1139   1.410       .  A
C1139      C1140   1.400       .  A
C1139      H1143   1.084       .  S
C1140      O1144   1.372       .  S
O1142      H1146   0.992       .  S
O1144      H1145   0.992       .  S
C1147      C1148   1.403       .  A
C1147      C1152   1.420       .  A
C1148      C1149   1.408       .  A
C1148      H1153   1.083       .  S
C1149      C1150   1.417       .  A
C1149      O1154   1.374   1_556  S
C1150      C1151   1.398       .  A
C1151      C1152   1.397       .  A
C1151      H1155   1.084       .  S
C1152      O1156   1.371       .  S
O1154      H1158   0.992       .  S
O1156      H1157   0.992       .  S
C1159      C1160   1.405       .  A
C1159      C1164   1.411       .  A
C1160      C1161   1.402       .  A
C1160      H1165   1.084       .  S
C1161      C1162   1.407       .  A
C1161      O1166   1.372       .  S
C1162      C1163   1.399       .  A
C1163      C1164   1.400       .  A
C1163      H1167   1.084       .  S
C1164      O1168   1.371       .  S
O1166      H1170   0.992       .  S
O1168      H1169   0.991       .  S
