geometry optimzed in LAMMPS
_audit_creation_date              2020-12-01 
_audit_creation_method            'lammps2cif' 
_symmetry_space_group_name_H-M    'P1' 
_symmetry_Int_Tables_number       1 
_symmetry_cell_setting            triclinic 
loop_ 
_symmetry_equiv_pos_as_xyz 
  x,y,z 
_cell_length_a                    40.72920695 
_cell_length_b                    42.336066832275236 
_cell_length_c                    41.92113425310413 
_cell_angle_alpha                 89.82184217268653 
_cell_angle_beta                  89.59646781714795 
_cell_angle_gamma                 90.68156866363768 
loop_ 
_atom_site_label 
_atom_site_type_symbol 
_atom_site_fract_x 
_atom_site_fract_y 
_atom_site_fract_z 
_atom_site_charge 
N1          N  0.81869650  0.83107332  0.00696626    -0.03700
C2          C  0.81839161  0.82047868  0.03779172    -0.01100
C3          C  0.81734508  0.78791733  0.03895227    -0.24000
C4          C  0.81457930  0.77770908  0.00836570    -0.24200
C5          C  0.81524570  0.80414390  0.98887736    -0.01200
H6          H  0.81342852  0.77343360  0.06000885     0.12600
H7          H  0.80926640  0.75361941  0.00132364     0.12600
N8          N  0.76855655  0.17632739  0.00874432    -0.03700
C9          C  0.74797864  0.17772467  0.03528897    -0.01100
C10         C  0.71591002  0.17083614  0.02672465    -0.24000
C11         C  0.71548869  0.16600538  0.99493802    -0.24200
C12         C  0.74681121  0.17218136  0.98382864    -0.01200
H13         H  0.69410042  0.17298546  0.04141790     0.12600
H14         H  0.69337929  0.16474874  0.98075187     0.12600
N15         N  0.17715547  0.86050193  0.01394358    -0.03700
C16         C  0.18254099  0.85494129  0.04553134    -0.01100
C17         C  0.19579198  0.82538112  0.05015268    -0.24000
C18         C  0.19938200  0.81214125  0.02078618    -0.24200
C19         C  0.18802895  0.83374538  0.99889689    -0.01200
H20         H  0.20401117  0.81542998  0.07249523     0.12600
H21         H  0.21130642  0.79000009  0.01563507     0.12600
N22         N  0.83359276  0.02492111  0.79851524    -0.03700
C23         C  0.83309891  0.05391625  0.78372485    -0.01100
C24         C  0.84067649  0.05101023  0.75172768    -0.24000
C25         C  0.84281523  0.01957779  0.74544976    -0.24200
C26         C  0.83776254  0.00367258  0.77392149    -0.01200
H27         H  0.83897165  0.06938226  0.73380687     0.12600
H28         H  0.84382731  0.00937632  0.72183396     0.12600
N29         N  0.97773562  0.17698637  0.80249498    -0.03700
C30         C  0.95056169  0.17035757  0.78391329    -0.01100
C31         C  0.95937648  0.15079907  0.75883463    -0.24000
C32         C  0.99192394  0.14674349  0.75975509    -0.24200
C33         C  0.00325532  0.16641863  0.78326212    -0.01200
H34         H  0.94576031  0.14584744  0.73739807     0.12600
H35         H  0.00605470  0.13793374  0.73972766     0.12600
N36         N  0.99384594  0.87472722  0.79712890    -0.03700
C37         C  0.96285423  0.86720562  0.78725143    -0.01100
C38         C  0.95969044  0.87102946  0.75478087    -0.24000
C39         C  0.98994062  0.87969519  0.74342087    -0.24200
C40         C  0.01102740  0.87980452  0.76919543    -0.01200
H41         H  0.93836637  0.86524484  0.74058276     0.12600
H42         H  0.99686907  0.88101980  0.71847148     0.12600
N43         N  0.19872371  0.03869024  0.85986157    -0.03700
C44         C  0.20701700  0.06933115  0.85436694    -0.01100
C45         C  0.23987889  0.07469142  0.86036598    -0.24000
C46         C  0.25278813  0.04607952  0.86859362    -0.24200
C47         C  0.22771675  0.02390337  0.86565572    -0.01200
H48         H  0.25369321  0.09620381  0.85556730     0.12600
H49         H  0.27867873  0.04127983  0.87117056     0.12600
N50         N  0.97625998  0.81154031  0.14249278    -0.03700
C51         C  0.94720712  0.79447636  0.14518136    -0.01100
C52         C  0.95243500  0.76285252  0.13918061    -0.24000
C53         C  0.98481535  0.75947922  0.13283170    -0.24200
C54         C  0.99945902  0.78868922  0.13702570    -0.01200
H55         H  0.93499351  0.74356203  0.14214338     0.12600
H56         H  0.99721478  0.73703667  0.13131550     0.12600
N57         N  0.77834730  0.03670031  0.15840523    -0.03700
C58         C  0.76689189  0.06687267  0.15716475    -0.01100
C59         C  0.73314912  0.06708569  0.15488281    -0.24000
C60         C  0.72275194  0.03664778  0.15770605    -0.24200
C61         C  0.75042160  0.01817434  0.16013659    -0.01200
H62         H  0.71754285  0.08751315  0.15706855     0.12600
H63         H  0.69749730  0.02927365  0.16155003     0.12600
N64         N  0.97565519  0.15894269  0.21656961    -0.03700
C65         C  0.94992910  0.15621606  0.23794137    -0.01100
C66         C  0.96009123  0.14046993  0.26514872    -0.24000
C67         C  0.99270063  0.13577084  0.26235777    -0.24200
C68         C  0.00246683  0.15073114  0.23470422    -0.01200
H69         H  0.94735443  0.13852572  0.28775887     0.12600
H70         H  0.00837960  0.12977138  0.28220176     0.12600
Zr71       Zr  0.26848090  0.29834184  0.29434704     2.17500
O72         O  0.31707979  0.28115396  0.32307826    -0.51500
O73         O  0.26565186  0.35035818  0.31860098    -0.74700
O74         O  0.31731348  0.32505148  0.27723729    -0.81500
O75         O  0.20220941  0.28344996  0.35455392    -0.83300
O76         O  0.31911413  0.32280463  0.22295562    -0.78900
O77         O  0.25561638  0.27775162  0.34619443    -0.90500
O78         O  0.22996167  0.37781201  0.28832433    -0.76500
O79         O  0.25548380  0.32892584  0.24859177    -0.86000
O80         O  0.21185826  0.31066108  0.29906136    -0.85700
O81         O  0.28254828  0.26602425  0.24946088    -0.72400
O82         O  0.24041071  0.24835092  0.29832008    -0.84600
Zr83       Zr  0.18234780  0.25897145  0.21325300     2.26400
Zr84       Zr  0.26763255  0.29675519  0.20359404     2.06300
Zr85       Zr  0.18310089  0.26080680  0.30352371     2.10000
Zr86       Zr  0.19907338  0.34107224  0.25404421     1.78800
O87         O  0.18325332  0.21571871  0.33971379    -0.93400
O88         O  0.20960884  0.38800238  0.22166170    -0.41200
O89         O  0.16894470  0.29182576  0.25775333    -0.77800
O90         O  0.21053042  0.30913483  0.20843164    -0.96500
O91         O  0.23902271  0.24712405  0.20708987    -0.89800
O92         O  0.19629242  0.22852042  0.25872904    -0.92600
C93         C  0.25166990  0.37614704  0.31051960     1.01100
C94         C  0.23218520  0.28890396  0.36258398     1.14000
C95         C  0.33101587  0.33083448  0.25041919     1.04800
O96         O  0.26753007  0.34440541  0.17091311    -0.94800
O97         O  0.24532529  0.27446109  0.15332571    -0.90500
O98         O  0.19005794  0.27087009  0.15839017    -0.83700
C99         C  0.21644599  0.26733892  0.14254270     1.11500
O100        O  0.29550306  0.19811442  0.28787440    -0.96800
Zr101      Zr  0.25256300  0.21679328  0.25252616     1.88900
O102        O  0.18548679  0.20693370  0.18840975    -0.73400
O103        O  0.31303827  0.27584069  0.17228126    -0.52700
O104        O  0.29781906  0.19658586  0.22058834    -0.97400
O105        O  0.23517521  0.16991577  0.28256720    -0.54600
O106        O  0.22591706  0.18166624  0.21447522    -0.73900
C107        C  0.20287173  0.18237474  0.19371702     0.98400
O108        O  0.13164274  0.27908232  0.19067051    -0.62800
O109        O  0.13301623  0.28158121  0.32701556    -0.57600
O110        O  0.13453651  0.23000045  0.23057227    -0.94200
O111        O  0.13326847  0.23216485  0.28491276    -0.92700
O112        O  0.15633729  0.36095813  0.28931454    -0.93000
O113        O  0.15298321  0.35587603  0.22064091    -0.91800
C114        C  0.12155893  0.22342346  0.25765885     1.17200
H115        H  0.20779433  0.32439597  0.31691665     0.33200
H116        H  0.20349270  0.32031597  0.18959508     0.44000
H117        H  0.18441252  0.20868540  0.25956008     0.37600
H118        H  0.30586906  0.26207862  0.24924429     0.34000
H119        H  0.20166836  0.40575378  0.23484894     0.25800
H120        H  0.32049508  0.29372639  0.15867968     0.31800
H121        H  0.30749721  0.21541468  0.20989886     0.37700
H122        H  0.14985933  0.38134958  0.27975416     0.32100
H123        H  0.13414053  0.27582240  0.34988189     0.31000
H124        H  0.16185663  0.20495293  0.33630950     0.32700
H125        H  0.21551143  0.16144333  0.27162096     0.31700
H126        H  0.13407933  0.34345861  0.22910763     0.35700
H127        H  0.11825790  0.28556358  0.20929848     0.28400
H128        H  0.32688078  0.30048025  0.33247777     0.32600
H129        H  0.30026970  0.17632393  0.28084398     0.35500
H130        H  0.13617223  0.30479414  0.32653372     0.28100
H131        H  0.13799181  0.29929832  0.18026991     0.41000
H132        H  0.29029284  0.35277973  0.17202896     0.31000
H133        H  0.23380838  0.39052750  0.22146573     0.38600
H134        H  0.22662733  0.17824072  0.30300217     0.30500
H135        H  0.33107243  0.27270304  0.18763386     0.30600
H136        H  0.33297273  0.27434189  0.30655564     0.30800
N137        N  0.16052754  0.03012634  0.18903087    -0.03700
C138        C  0.16778124  0.06090723  0.19654811    -0.01100
C139        C  0.17719266  0.06340414  0.22803893    -0.24000
C140        C  0.17713185  0.03367500  0.24044428    -0.24200
C141        C  0.16702657  0.01342440  0.21662807    -0.01200
H142        H  0.18636118  0.08443587  0.23979375     0.12600
H143        H  0.18580560  0.02714165  0.26387742     0.12600
Zr144      Zr  0.26950680  0.73862802  0.27401432     2.17500
O145        O  0.32264274  0.72173281  0.25361260    -0.51500
O146        O  0.26692999  0.70965151  0.32372558    -0.74700
O147        O  0.31146430  0.75884370  0.30800343    -0.81500
O148        O  0.22119906  0.67195514  0.23896525    -0.83300
O149        O  0.30345244  0.81163348  0.31444918    -0.78900
O150        O  0.26994639  0.68387109  0.26263690    -0.90500
O151        O  0.22240628  0.72819803  0.34979634    -0.76500
O152        O  0.24607861  0.77687332  0.30832222    -0.86000
O153        O  0.21354969  0.72290398  0.27915691    -0.85700
O154        O  0.28029001  0.78839252  0.24859793    -0.72400
O155        O  0.24915586  0.73714833  0.22057586    -0.84600
Zr156      Zr  0.17796305  0.81083156  0.23581886     2.26400
Zr157      Zr  0.25496428  0.82689591  0.28263199     2.06300
Zr158      Zr  0.19230789  0.72247510  0.22608124     2.10000
Zr159      Zr  0.19031083  0.76082832  0.31347076     1.78800
O160        O  0.20011656  0.69770783  0.17427296    -0.93400
O161        O  0.18876932  0.78759940  0.36480201    -0.41200
O162        O  0.16756062  0.76069485  0.26077121    -0.77800
O163        O  0.19829125  0.81203223  0.28923609    -0.96500
O164        O  0.23371615  0.82629621  0.22986603    -0.89800
O165        O  0.20137266  0.77270851  0.20099798    -0.92600
C166        C  0.24852710  0.71139868  0.34846590     1.01100
C167        C  0.24893394  0.66419900  0.25185549     1.14000
C168        C  0.31915235  0.78573122  0.31954730     1.04800
O169        O  0.24665110  0.85657488  0.33164436    -0.94800
O170        O  0.22902874  0.87728894  0.26543545    -0.90500
O171        O  0.17844695  0.86629880  0.24533500    -0.83700
C172        C  0.20114232  0.88560089  0.25343965     1.11500
O173        O  0.30652993  0.76173342  0.17661307    -0.96800
Zr174      Zr  0.25740192  0.78794780  0.19602350     1.88900
O175        O  0.18258240  0.84113009  0.18713028    -0.73400
O176        O  0.30037625  0.86160960  0.26670143    -0.52700
O177        O  0.30098735  0.82735600  0.18955472    -0.97400
O178        O  0.25460119  0.76607955  0.14233038    -0.54600
O179        O  0.22932005  0.82603638  0.16246486    -0.73900
C180        C  0.20297494  0.84239234  0.16383850     0.98400
O181        O  0.12511839  0.82714646  0.25740186    -0.62800
O182        O  0.14856533  0.68528997  0.24039701    -0.57600
O183        O  0.13453872  0.79155102  0.20334922    -0.94200
O184        O  0.14052470  0.73823989  0.19855964    -0.92700
O185        O  0.15536089  0.71496906  0.32470155    -0.93000
O186        O  0.13559754  0.77941942  0.32713288    -0.91800
C187        C  0.12521853  0.76450892  0.19339032     1.17200
H188        H  0.21119137  0.70240574  0.28912602     0.33200
H189        H  0.18696765  0.82784668  0.30154650     0.44000
H190        H  0.19134738  0.77324277  0.18018976     0.37600
H191        H  0.30369370  0.79222705  0.24729998     0.34000
H192        H  0.18683112  0.77046395  0.38086729     0.25800
H193        H  0.30711117  0.87233669  0.28660290     0.31800
H194        H  0.30654900  0.82689912  0.16653567     0.37700
H195        H  0.14709477  0.71835258  0.34667654     0.32100
H196        H  0.15428553  0.66550963  0.22922715     0.31000
H197        H  0.22262816  0.68915651  0.17491622     0.32700
H198        H  0.26437209  0.78262759  0.12833100     0.31700
H199        H  0.12066996  0.76825146  0.31228635     0.35700
H200        H  0.11402985  0.80719487  0.26389039     0.28400
H201        H  0.33258781  0.70976799  0.27135654     0.32600
H202        H  0.32018975  0.75877071  0.19579279     0.35500
H203        H  0.15216958  0.68063482  0.26325164     0.28100
H204        H  0.13032002  0.83764934  0.27784902     0.41000
H205        H  0.25126628  0.87885800  0.32571913     0.31000
H206        H  0.21127654  0.79622581  0.36752652     0.38600
H207        H  0.23099745  0.76577680  0.13685789     0.30500
H208        H  0.31876991  0.84738529  0.26156087     0.30600
H209        H  0.33615854  0.74124250  0.25181765     0.30800
Zr210      Zr  0.77698183  0.26390301  0.22008731     2.17500
O211        O  0.81497152  0.28748505  0.18137645    -0.51500
O212        O  0.78761155  0.20891756  0.20976751    -0.74700
O213        O  0.83124116  0.25125909  0.23651797    -0.81500
O214        O  0.70643202  0.26176717  0.16219395    -0.83300
O215        O  0.83019083  0.24890591  0.29073891    -0.78900
O216        O  0.76140960  0.25325395  0.16609854    -0.90500
O217        O  0.75029460  0.18194655  0.23974297    -0.76500
O218        O  0.77117790  0.23818381  0.27040510    -0.86000
O219        O  0.72253832  0.24289434  0.22184069    -0.85700
O220        O  0.78906072  0.30357540  0.25909755    -0.72400
O221        O  0.74248810  0.30843109  0.21142339    -0.84600
Zr222      Zr  0.69188819  0.30101399  0.30299855     2.26400
Zr223      Zr  0.78121534  0.27773187  0.30982725     2.06300
Zr224      Zr  0.68762216  0.28702280  0.21325529     2.10000
Zr225      Zr  0.71697699  0.21762539  0.27179000     1.78800
O226        O  0.68028617  0.32784366  0.17299451    -0.93400
O227        O  0.73804942  0.18495700  0.31471381    -0.41200
O228        O  0.68030924  0.26107244  0.26402355    -0.77800
O229        O  0.72635128  0.25651622  0.31215161    -0.96500
O230        O  0.74624923  0.32178482  0.30228571    -0.89800
O231        O  0.69841329  0.32667388  0.25270808    -0.92600
C232        C  0.77410966  0.18318587  0.21940612     1.01100
C233        C  0.73431363  0.25179552  0.15098120     1.14000
C234        C  0.84349965  0.24320610  0.26323651     1.04800
O235        O  0.79120724  0.24095332  0.35336215    -0.94800
O236        O  0.76145049  0.30163945  0.36067560    -0.90500
O237        O  0.70623521  0.30789209  0.35746621    -0.83700
C238        C  0.73328941  0.30981153  0.37250705     1.11500
O239        O  0.79072486  0.36619247  0.21122496    -0.96800
Zr240      Zr  0.75267822  0.34710074  0.25218403     1.88900
O241        O  0.68794704  0.35576224  0.31985908    -0.73400
O242        O  0.82871715  0.31032940  0.32325382    -0.52700
O243        O  0.79836103  0.37635976  0.27541797    -0.97400
O244        O  0.72963833  0.38796699  0.21824881    -0.54600
O245        O  0.72566588  0.38254490  0.28989037    -0.73900
C246        C  0.70353444  0.38112910  0.31196545     0.98400
O247        O  0.65052180  0.27638166  0.33758048    -0.62800
O248        O  0.64007292  0.25672396  0.19538850    -0.57600
O249        O  0.63845066  0.31630796  0.28681305    -0.94200
O250        O  0.63587556  0.31161432  0.23268508    -0.92700
O251        O  0.68302836  0.17850512  0.24462113    -0.93000
O252        O  0.67011352  0.19805176  0.30274817    -0.91800
C253        C  0.62399287  0.31984683  0.26018010     1.17200
H254        H  0.71913520  0.22662750  0.20618076     0.33200
H255        H  0.72193686  0.24754869  0.33299077     0.44000
H256        H  0.68392055  0.34438249  0.25067318     0.37600
H257        H  0.81160033  0.31073023  0.25684204     0.34000
H258        H  0.72944225  0.16347948  0.31017954     0.25800
H259        H  0.82062408  0.33225982  0.32218591     0.31800
H260        H  0.79386356  0.39874325  0.27032266     0.37700
H261        H  0.66630706  0.19099126  0.23331856     0.32100
H262        H  0.63949365  0.26009110  0.17202044     0.31000
H263        H  0.66674923  0.34403017  0.18362823     0.32700
H264        H  0.71235006  0.39808076  0.23124544     0.31700
H265        H  0.65135209  0.21087588  0.29561053     0.35700
H266        H  0.63539272  0.26527870  0.32291687     0.28400
H267        H  0.82662003  0.26937626  0.17181882     0.32600
H268        H  0.80793790  0.34993090  0.21003716     0.35500
H269        H  0.64651143  0.23439994  0.19797097     0.28100
H270        H  0.66218483  0.25909053  0.34848514     0.41000
H271        H  0.80663431  0.25230158  0.36756933     0.31000
H272        H  0.76191833  0.18372818  0.31040949     0.38600
H273        H  0.71747369  0.37622646  0.20162741     0.30500
H274        H  0.83227203  0.30639480  0.34625024     0.30600
H275        H  0.83183194  0.29851326  0.19423124     0.30800
Zr276      Zr  0.67303919  0.75446772  0.27416521     2.17500
O277        O  0.63078827  0.71988668  0.25193390    -0.51500
O278        O  0.66023119  0.74617680  0.32958224    -0.74700
O279        O  0.68781855  0.70088827  0.28288004    -0.81500
O280        O  0.61636237  0.82360059  0.27887891    -0.83300
O281        O  0.74230267  0.69542887  0.27208884    -0.78900
O282        O  0.61800107  0.77012397  0.28395062    -0.90500
O283        O  0.69459021  0.77721698  0.35857542    -0.76500
O284        O  0.72584973  0.75578199  0.29799446    -0.86000
O285        O  0.67753351  0.80502889  0.29825986    -0.85700
O286        O  0.71069351  0.74386161  0.23146595    -0.72400
O287        O  0.66313113  0.79078530  0.23181630    -0.84600
Zr288      Zr  0.75982265  0.83495777  0.23697945     2.26400
Zr289      Zr  0.76418439  0.74766357  0.25525742     2.06300
Zr290      Zr  0.66922559  0.84179178  0.25591967     2.10000
Zr291      Zr  0.73016498  0.80669342  0.32148527     1.78800
O292        O  0.62542477  0.85708472  0.22001690    -0.93400
O293        O  0.76822249  0.78157105  0.35791080    -0.41200
O294        O  0.72260915  0.84513304  0.27993302    -0.77800
O295        O  0.76973912  0.79861068  0.27958708    -0.96500
O296        O  0.75535029  0.78430686  0.21315854    -0.89800
O297        O  0.70699002  0.83274826  0.21327623    -0.92600
C298        C  0.67102092  0.75689884  0.35600765     1.01100
C299        C  0.60378547  0.79662753  0.28716824     1.14000
C300        C  0.71384137  0.68458733  0.28074661     1.04800
O301        O  0.80409529  0.73652869  0.29662940    -0.94800
O302        O  0.81425121  0.76646463  0.22617227    -0.90500
O303        O  0.81424773  0.82014676  0.22329965    -0.83700
C304        C  0.82733700  0.79344536  0.21823531     1.11500
O305        O  0.66601075  0.73993523  0.17182485    -0.96800
Zr306      Zr  0.70236827  0.78208765  0.19025138     1.88900
O307        O  0.76944895  0.84734339  0.18137518    -0.73400
O308        O  0.78769528  0.70578995  0.22282478    -0.52700
O309        O  0.72555285  0.75037276  0.14749710    -0.97400
O310        O  0.65787253  0.80728942  0.16150982    -0.54600
O311        O  0.73668750  0.81330507  0.15441284    -0.73900
C312        C  0.75846646  0.83546564  0.15549689     0.98400
O313        O  0.80050745  0.87004376  0.26092895    -0.62800
O314        O  0.65669245  0.88468921  0.29233328    -0.57600
O315        O  0.74440551  0.88792712  0.22744010    -0.94200
O316        O  0.68906608  0.89229830  0.23338583    -0.92700
O317        O  0.70641063  0.84760933  0.35482697    -0.93000
O318        O  0.77149753  0.84293527  0.34244806    -0.91800
C319        C  0.71770171  0.90319292  0.22551211     1.17200
H320        H  0.66152834  0.80805896  0.31503870     0.33200
H321        H  0.79173286  0.80152412  0.28765706     0.44000
H322        H  0.70462553  0.84832878  0.19664026     0.37600
H323        H  0.70698522  0.72290438  0.22306893     0.34000
H324        H  0.75968751  0.78657698  0.37946673     0.25800
H325        H  0.79615679  0.69012061  0.23820969     0.31800
H326        H  0.73195259  0.73039415  0.15796521     0.37700
H327        H  0.71189661  0.84133840  0.37691117     0.32100
H328        H  0.63261317  0.88721525  0.29094484     0.31000
H329        H  0.62134835  0.87953546  0.22508028     0.32700
H330        H  0.65953467  0.79898202  0.13952052     0.31700
H331        H  0.77241360  0.86056101  0.32690920     0.35700
H332        H  0.78785092  0.88292857  0.27619638     0.28400
H333        H  0.62794126  0.70214089  0.26718764     0.32600
H334        H  0.64444918  0.74461703  0.18167558     0.35500
H335        H  0.66045377  0.87580036  0.31383753     0.28100
H336        H  0.81390520  0.85627830  0.27468440     0.41000
H337        H  0.82412217  0.73029259  0.28482614     0.31000
H338        H  0.76395840  0.75864300  0.35543831     0.38600
H339        H  0.66435987  0.82981633  0.15960877     0.30500
H340        H  0.76866489  0.69519650  0.21267319     0.30600
H341        H  0.64099513  0.71050038  0.23276549     0.30800
N342        N  0.18251419  0.19293678  0.00309725    -0.03700
C343        C  0.20345034  0.19673041  0.02865792    -0.01100
C344        C  0.23586896  0.19824694  0.01863640    -0.24000
C345        C  0.23604346  0.19581177  0.98672742    -0.24200
C346        C  0.20374290  0.19405995  0.97733482    -0.01200
H347        H  0.25724442  0.20390168  0.03282290     0.12600
H348        H  0.25732019  0.19991895  0.97154339     0.12600
Zr349      Zr  0.18189106  0.25674328  0.78192750     2.17500
O350        O  0.13854480  0.27436863  0.81790439    -0.51500
O351        O  0.17781806  0.20058429  0.78846400    -0.74700
O352        O  0.13024767  0.23887162  0.76377826    -0.81500
O353        O  0.24440017  0.26647071  0.84614039    -0.83300
O354        O  0.13101911  0.24121925  0.70946458    -0.78900
O355        O  0.19270605  0.24765043  0.83685014    -0.90500
O356        O  0.22141916  0.17853935  0.76404394    -0.76500
O357        O  0.19386975  0.23297681  0.73200834    -0.86000
O358        O  0.23789191  0.24217246  0.78440183    -0.85700
O359        O  0.16745030  0.29555845  0.74326239    -0.72400
O360        O  0.21023058  0.30448273  0.79513166    -0.84600
Zr361      Zr  0.26597127  0.30716014  0.70686862     2.26400
Zr362      Zr  0.18122277  0.27196685  0.69288914     2.06300
Zr363      Zr  0.26682570  0.28979964  0.79606197     2.10000
Zr364      Zr  0.25034631  0.21990767  0.73416889     1.78800
O365        O  0.27625629  0.32690112  0.83937968    -0.93400
O366        O  0.23657529  0.18436369  0.69058891    -0.41200
O367        O  0.28039171  0.26765315  0.74510819    -0.77800
O368        O  0.23830509  0.25865722  0.69439036    -0.96500
O369        O  0.20954648  0.32042189  0.70442357    -0.89800
O370        O  0.25389398  0.32967431  0.75758059    -0.92600
C371        C  0.19539915  0.17684339  0.78150670     1.01100
C372        C  0.21743105  0.25230298  0.85474484     1.14000
C373        C  0.11791458  0.23308223  0.73664639     1.04800
O374        O  0.17765184  0.23150090  0.65186598    -0.94800
O375        O  0.20392418  0.29480272  0.64231823    -0.90500
O376        O  0.25701942  0.31003813  0.65079163    -0.83700
C377        C  0.23199818  0.30640644  0.63299650     1.11500
O378        O  0.15438205  0.35104427  0.79453622    -0.96800
Zr379      Zr  0.19769672  0.34288393  0.75514086     1.88900
O380        O  0.26230724  0.36215204  0.69148870    -0.73400
O381        O  0.13515177  0.30105380  0.67133202    -0.52700
O382        O  0.15052439  0.37086234  0.73443736    -0.97400
O383        O  0.21639735  0.38507785  0.79041636    -0.54600
O384        O  0.22133532  0.38342825  0.72075680    -0.73900
C385        C  0.24405018  0.38527188  0.69948906     0.98400
O386        O  0.31372811  0.29095616  0.67579958    -0.62800
O387        O  0.31059499  0.25614053  0.81527630    -0.57600
O388        O  0.31531844  0.32946761  0.72762911    -0.94200
O389        O  0.31752360  0.31880064  0.78096594    -0.92700
O390        O  0.29068429  0.18829975  0.76214161    -0.93000
O391        O  0.30163861  0.21111228  0.70544329    -0.91800
C392        C  0.32908474  0.33090479  0.75482868     1.17200
H393        H  0.24173096  0.22644521  0.80059889     0.33200
H394        H  0.24535880  0.25106435  0.67378184     0.44000
H395        H  0.26641638  0.34882456  0.76119645     0.37600
H396        H  0.14415792  0.29960887  0.74436357     0.34000
H397        H  0.24849559  0.16470452  0.69545537     0.25800
H398        H  0.14346193  0.32304976  0.66928465     0.31800
H399        H  0.13713518  0.35453760  0.72357152     0.37700
H400        H  0.28555706  0.16618184  0.75616509     0.32100
H401        H  0.32484836  0.25266819  0.79641862     0.31000
H402        H  0.25460180  0.33658074  0.84328021     0.32700
H403        H  0.23659989  0.39397218  0.78045265     0.31700
H404        H  0.29606768  0.21330230  0.68260437     0.35700
H405        H  0.32876470  0.28141596  0.69148589     0.28400
H406        H  0.12616579  0.25500497  0.82412116     0.32600
H407        H  0.16409990  0.34499124  0.81522693     0.35500
H408        H  0.32378827  0.26992508  0.82942529     0.28100
H409        H  0.30595388  0.27277136  0.66298643     0.41000
H410        H  0.16448070  0.24111526  0.63469865     0.31000
H411        H  0.21313304  0.17885279  0.69409334     0.38600
H412        H  0.22416470  0.37406932  0.80974962     0.30500
H413        H  0.13313929  0.29356940  0.64907278     0.30600
H414        H  0.12325327  0.28637091  0.80433438     0.30800
Zr415      Zr  0.20898687  0.82585660  0.79600004     2.17500
O416        O  0.15644824  0.82563163  0.82448730    -0.51500
O417        O  0.21850495  0.88075263  0.81039290    -0.74700
O418        O  0.21429058  0.81992981  0.85239263    -0.81500
O419        O  0.16061908  0.83659867  0.72057107    -0.83300
O420        O  0.25873397  0.79019685  0.86423427    -0.78900
O421        O  0.15930161  0.84469554  0.77410991    -0.90500
O422        O  0.26979984  0.89383376  0.79373580    -0.76500
O423        O  0.26614839  0.82798085  0.80573860    -0.86000
O424        O  0.23139719  0.85098252  0.74983548    -0.85700
O425        O  0.22438719  0.77200542  0.80482581    -0.72400
O426        O  0.19246565  0.79235233  0.75280031    -0.84600
Zr427      Zr  0.29067025  0.76694328  0.72292982     2.26400
Zr428      Zr  0.28271907  0.77437661  0.81300463     2.06300
Zr429      Zr  0.21596475  0.81713773  0.70647170     2.10000
Zr430      Zr  0.28912917  0.85199753  0.75938020     1.78800
O431        O  0.17537078  0.80764690  0.66515336    -0.93400
O432        O  0.33363513  0.86541148  0.79568589    -0.41200
O433        O  0.27425595  0.82028170  0.71419005    -0.77800
O434        O  0.30732335  0.79903293  0.76688655    -0.96500
O435        O  0.26818944  0.74161438  0.76893027    -0.89800
O436        O  0.23305024  0.76383255  0.71401571    -0.92600
C437        C  0.24301121  0.89994727  0.80854387     1.01100
C438        C  0.14631741  0.84548723  0.74660100     1.14000
C439        C  0.23355187  0.80665677  0.87197173     1.04800
O440        O  0.32685930  0.79714066  0.84465695    -0.94800
O441        O  0.33220323  0.74369353  0.80108934    -0.90500
O442        O  0.33373670  0.73753055  0.74715653    -0.83700
C443        C  0.34523628  0.73323414  0.77512003     1.11500
O444        O  0.15745016  0.73039985  0.78521823    -0.96800
Zr445      Zr  0.21087146  0.73929023  0.76011545     1.88900
O446        O  0.28478979  0.71276717  0.70747576    -0.73400
O447        O  0.27726550  0.72614777  0.84458383    -0.52700
O448        O  0.21211050  0.69776794  0.80032329    -0.97400
O449        O  0.16855651  0.72059307  0.72365719    -0.54600
O450        O  0.23707127  0.69644447  0.73096637    -0.73900
C451        C  0.26316478  0.69170256  0.71423672     0.98400
O452        O  0.34238154  0.77993145  0.69596032    -0.62800
O453        O  0.22500799  0.86784307  0.68011995    -0.57600
O454        O  0.28414256  0.76750444  0.66620669    -0.94200
O455        O  0.23715060  0.79442052  0.65623545    -0.92700
O456        O  0.28966973  0.89630644  0.72224973    -0.93000
O457        O  0.34142733  0.85996210  0.73184047    -0.91800
C458        C  0.26201197  0.77778478  0.64751559     1.17200
H459        H  0.22266941  0.87191567  0.74705519     0.33200
H460        H  0.33095706  0.79923957  0.76872027     0.44000
H461        H  0.22775902  0.75080559  0.69587638     0.37600
H462        H  0.21335202  0.76362957  0.82353789     0.34000
H463        H  0.33727181  0.88841995  0.79281705     0.25800
H464        H  0.28747263  0.73132566  0.86531467     0.31800
H465        H  0.20045354  0.67967067  0.79043164     0.37700
H466        H  0.26631393  0.90031242  0.71757939     0.32100
H467        H  0.24028420  0.86319439  0.66231046     0.31000
H468        H  0.16296107  0.78873754  0.67259319     0.32700
H469        H  0.18053213  0.71185706  0.70510989     0.31700
H470        H  0.33936609  0.84760012  0.71193167     0.35700
H471        H  0.35740108  0.78697282  0.71307188     0.28400
H472        H  0.15837567  0.84167329  0.84155242     0.32600
H473        H  0.15317162  0.75009341  0.79714994     0.35500
H474        H  0.20386862  0.87239179  0.66963526     0.28100
H475        H  0.35124694  0.75941038  0.68887539     0.41000
H476        H  0.32944990  0.78227533  0.86271552     0.31000
H477        H  0.32391450  0.86329949  0.81732123     0.38600
H478        H  0.15843307  0.74009473  0.71538580     0.30500
H479        H  0.25350189  0.72417676  0.84943160     0.30600
H480        H  0.15499371  0.80504330  0.83568843     0.30800
Zr481      Zr  0.76376178  0.25117046  0.79549724     2.17500
O482        O  0.80089707  0.27418441  0.83471499    -0.51500
O483        O  0.77307944  0.19461880  0.79978149    -0.74700
O484        O  0.74787730  0.23390055  0.84718815    -0.81500
O485        O  0.82520394  0.25555487  0.72848132    -0.83300
O486        O  0.69342370  0.24483294  0.85248758    -0.78900
O487        O  0.81958160  0.24366159  0.78138428    -0.90500
O488        O  0.73941008  0.17155749  0.76408951    -0.76500
O489        O  0.70993028  0.22978475  0.79013143    -0.86000
O490        O  0.76122494  0.23351866  0.74186503    -0.85700
O491        O  0.72768745  0.29319338  0.80958500    -0.72400
O492        O  0.77665754  0.29646629  0.76342533    -0.84600
Zr493      Zr  0.68369748  0.29870161  0.71562030     2.26400
Zr494      Zr  0.67340684  0.27197868  0.80248222     2.06300
Zr495      Zr  0.77318175  0.27866573  0.70908325     2.10000
Zr496      Zr  0.70768584  0.21206044  0.73652713     1.78800
O497        O  0.81892085  0.31424970  0.69670457    -0.93400
O498        O  0.66469569  0.17710326  0.75756002    -0.41200
O499        O  0.71923559  0.25639365  0.70193927    -0.77800
O500        O  0.67017411  0.25374072  0.74830492    -0.96500
O501        O  0.68527123  0.31682022  0.76927342    -0.89800
O502        O  0.73700369  0.32065066  0.72213389    -0.92600
C503        C  0.76134505  0.17000306  0.78597212     1.01100
C504        C  0.83599877  0.24498775  0.75542653     1.14000
C505        C  0.72098888  0.23333633  0.86280655     1.04800
O506        O  0.62809092  0.23546910  0.81353692    -0.94800
O507        O  0.62380911  0.30093636  0.78228890    -0.90500
O508        O  0.62803362  0.30724343  0.72839035    -0.83700
C509        C  0.61272103  0.31011392  0.75470612     1.11500
O510        O  0.77481173  0.35429308  0.81916422    -0.96800
Zr511      Zr  0.73901134  0.33785550  0.77583381     1.88900
O512        O  0.67752817  0.35546832  0.71107041    -0.73400
O513        O  0.65791684  0.30470843  0.84767420    -0.52700
O514        O  0.71319416  0.37063301  0.81629857    -0.97400
O515        O  0.78503103  0.36939210  0.75537029    -0.54600
O516        O  0.70934012  0.37899394  0.74814482    -0.73900
C517        C  0.68880557  0.38009119  0.72512645     0.98400
O518        O  0.64591640  0.27894246  0.67519040    -0.62800
O519        O  0.78828271  0.24397744  0.66527625    -0.57600
O520        O  0.70050429  0.31563094  0.66365513    -0.94200
O521        O  0.75542641  0.30680126  0.65947601    -0.92700
O522        O  0.73254453  0.18124412  0.69399087    -0.93000
O523        O  0.66848420  0.19695706  0.69541533    -0.91800
C524        C  0.72790999  0.31776128  0.64887272     1.17200
H525        H  0.77684313  0.21705657  0.73778922     0.33200
H526        H  0.64799203  0.24667872  0.74404250     0.44000
H527        H  0.74090168  0.33859596  0.70831861     0.37600
H528        H  0.73072025  0.29908320  0.83163727     0.34000
H529        H  0.66745297  0.15698348  0.74593711     0.25800
H530        H  0.66082384  0.32665863  0.83984079     0.31800
H531        H  0.71920549  0.39261364  0.81033506     0.37700
H532        H  0.72824613  0.15895408  0.70007132     0.32100
H533        H  0.79511018  0.22414199  0.67573488     0.31000
H534        H  0.80854293  0.33420327  0.69000350     0.32700
H535        H  0.78320373  0.39002539  0.76623058     0.31700
H536        H  0.64713430  0.20542973  0.70260603     0.35700
H537        H  0.65993288  0.26822976  0.65925893     0.28400
H538        H  0.80940749  0.25606653  0.84700316     0.32600
H539        H  0.79460496  0.34115251  0.81671065     0.35500
H540        H  0.76721784  0.23848540  0.65490824     0.28100
H541        H  0.63363149  0.26145063  0.68573123     0.41000
H542        H  0.63871612  0.21621654  0.82180653     0.31000
H543        H  0.67142993  0.17235198  0.77968974     0.38600
H544        H  0.77971600  0.37388324  0.73282190     0.30500
H545        H  0.63384315  0.30176295  0.84972966     0.30600
H546        H  0.78666579  0.28556920  0.84996755     0.30800
Zr547      Zr  0.76340649  0.81286747  0.79461460     2.17500
O548        O  0.74650648  0.85724084  0.82750788    -0.51500
O549        O  0.81939221  0.81038597  0.81122874    -0.74700
O550        O  0.76637778  0.79892900  0.84939902    -0.81500
O551        O  0.77894319  0.86606359  0.72321466    -0.83300
O552        O  0.74574049  0.74922381  0.85651899    -0.78900
O553        O  0.78381804  0.86288086  0.77723854    -0.90500
O554        O  0.84518182  0.77934442  0.77562355    -0.76500
O555        O  0.77531176  0.75843727  0.79746890    -0.86000
O556        O  0.79099545  0.80237222  0.74561859    -0.85700
O557        O  0.71146035  0.78796961  0.80366389    -0.72400
O558        O  0.72674437  0.82911034  0.75378543    -0.84600
Zr559      Zr  0.71122444  0.73562260  0.71520304     2.26400
Zr560      Zr  0.72333277  0.73249964  0.80442742     2.06300
Zr561      Zr  0.75338279  0.81583958  0.70444844     2.10000
Zr562      Zr  0.80233864  0.74769661  0.74863907     1.78800
O563        O  0.72643816  0.86011124  0.67886766    -0.93400
O564        O  0.82753922  0.71010977  0.78488034    -0.41200
O565        O  0.76432153  0.76013194  0.70664080    -0.77800
O566        O  0.75025739  0.72044998  0.75487960    -0.96500
O567        O  0.68481526  0.74748650  0.76419151    -0.89800
O568        O  0.70093144  0.79066452  0.71223325    -0.92600
C569        C  0.84539108  0.79998074  0.79822071     1.01100
C570        C  0.78695261  0.87750038  0.75074582     1.14000
C571        C  0.75980221  0.77478692  0.86657654     1.04800
O572        O  0.75222524  0.68712438  0.82562457    -0.94800
O573        O  0.69300006  0.68446878  0.78769496    -0.90500
O574        O  0.69129948  0.68512903  0.73357838    -0.83700
C575        C  0.68531035  0.67209919  0.76056982     1.11500
O576        O  0.66279379  0.84805149  0.79529932    -0.96800
Zr577      Zr  0.67517140  0.80283790  0.76165422     1.88900
O578        O  0.65305968  0.73973701  0.70143150    -0.73400
O579        O  0.67862046  0.72733832  0.84308800    -0.52700
O580        O  0.63405426  0.78981561  0.80212981    -0.97400
O581        O  0.65026096  0.84581375  0.73179513    -0.54600
O582        O  0.63159050  0.77979138  0.73047881    -0.73900
C583        C  0.62903701  0.75697763  0.71064816     0.98400
O584        O  0.72113346  0.68761965  0.68474521    -0.62800
O585        O  0.80096757  0.82101290  0.66920010    -0.57600
O586        O  0.71370360  0.74708674  0.65963432    -0.94200
O587        O  0.73636979  0.79582284  0.65142413    -0.92700
O588        O  0.84446089  0.75571180  0.70777421    -0.93000
O589        O  0.81753703  0.70019298  0.71967397    -0.91800
C590        C  0.72294766  0.76981953  0.64158514     1.17200
H591        H  0.81063432  0.81470165  0.74318251     0.33200
H592        H  0.75387892  0.69797500  0.75352709     0.44000
H593        H  0.68660280  0.79552076  0.69466296     0.37600
H594        H  0.70248986  0.79440004  0.82397552     0.34000
H595        H  0.85042728  0.70822852  0.77707090     0.25800
H596        H  0.68082662  0.74595700  0.85717727     0.31800
H597        H  0.61439755  0.80179659  0.79581265     0.37700
H598        H  0.85113019  0.77817791  0.70972562     0.32100
H599        H  0.79867041  0.84209802  0.65922717     0.31000
H600        H  0.71559603  0.87147252  0.69657736     0.32700
H601        H  0.65235005  0.83978161  0.70908254     0.31700
H602        H  0.80442963  0.70089127  0.69988337     0.35700
H603        H  0.70700455  0.68859507  0.66564369     0.28400
H604        H  0.76236634  0.85852649  0.84526119     0.32600
H605        H  0.68288435  0.86142209  0.79444755     0.35500
H606        H  0.81993810  0.82340866  0.68364838     0.28100
H607        H  0.74390814  0.68987476  0.67665807     0.41000
H608        H  0.76853506  0.68172258  0.80895852     0.31000
H609        H  0.82952602  0.72145454  0.80541006     0.38600
H610        H  0.66560515  0.86396373  0.73410953     0.30500
H611        H  0.65855792  0.73141567  0.83060554     0.30600
H612        H  0.72554127  0.85037498  0.83753276     0.30800
N613        N  0.47205934  0.71359845  0.68568140    -0.03700
C614        C  0.49330729  0.73708466  0.67664544    -0.01100
C615        C  0.47763869  0.76575270  0.67557448    -0.24000
C616        C  0.44689486  0.76065441  0.68789292    -0.24200
C617        C  0.44534824  0.72927164  0.69744500    -0.01200
H618        H  0.48904417  0.78869095  0.67175745     0.12600
H619        H  0.43001386  0.77905982  0.69469172     0.12600
N620        N  0.27266366  0.53893341  0.66358141    -0.03700
C621        C  0.25342062  0.51328327  0.67137823    -0.01100
C622        C  0.22670871  0.52263948  0.68955147    -0.24000
C623        C  0.22811062  0.55446338  0.69175655    -0.24200
C624        C  0.25697282  0.56403129  0.67710090    -0.01200
H625        H  0.20785665  0.50769174  0.70023381     0.12600
H626        H  0.21147478  0.56893868  0.70549547     0.12600
N627        N  0.47529454  0.38940195  0.70997772    -0.03700
C628        C  0.50243109  0.39102869  0.72976889    -0.01100
C629        C  0.49360957  0.40377860  0.75899652    -0.24000
C630        C  0.46114246  0.40917239  0.75851922    -0.24200
C631        C  0.44984654  0.39740291  0.73006499    -0.01200
H632        H  0.50790744  0.40436686  0.78062259     0.12600
H633        H  0.44649008  0.41397303  0.77959241     0.12600
N634        N  0.62954729  0.52882269  0.71426479    -0.03700
C635        C  0.63107144  0.49863303  0.72552758    -0.01100
C636        C  0.62442630  0.49722844  0.75778246    -0.24000
C637        C  0.62037153  0.52757025  0.76768732    -0.24200
C638        C  0.62633428  0.54684839  0.74148377    -0.01200
H639        H  0.62624099  0.47669736  0.77309518     0.12600
H640        H  0.61821806  0.53497681  0.79229736     0.12600
N641        N  0.47964761  0.39181882  0.29461683    -0.03700
C642        C  0.50726092  0.39218650  0.27532443    -0.01100
C643        C  0.49917374  0.39901826  0.24407668    -0.24000
C644        C  0.46614206  0.40141289  0.24291638    -0.24200
C645        C  0.45440527  0.39472385  0.27313315    -0.01200
H646        H  0.51522441  0.39828942  0.22340585     0.12600
H647        H  0.45192259  0.40200701  0.22118880     0.12600
N648        N  0.67314882  0.53518598  0.33389399    -0.03700
C649        C  0.68327508  0.50587245  0.32416352    -0.01100
C650        C  0.69874752  0.50720720  0.29480575    -0.24000
C651        C  0.70019574  0.53784716  0.28612552    -0.24200
C652        C  0.68426704  0.55476981  0.30953607    -0.01200
H653        H  0.70992584  0.48783818  0.28206498     0.12600
H654        H  0.71263063  0.54715555  0.26513696     0.12600
N655        N  0.46988600  0.75402790  0.37507316    -0.03700
C656        C  0.49435118  0.77670244  0.37309404    -0.01100
C657        C  0.48311739  0.80497281  0.38541661    -0.24000
C658        C  0.45160253  0.80048289  0.39468566    -0.24200
C659        C  0.44265221  0.77065397  0.38474096    -0.01200
H660        H  0.49453141  0.82807085  0.38344458     0.12600
H661        H  0.43504977  0.81960495  0.40017551     0.12600
N662        N  0.29867469  0.52555959  0.31936237    -0.03700
C663        C  0.29134259  0.49423264  0.31428107    -0.01100
C664        C  0.28248597  0.48928385  0.28291678    -0.24000
C665        C  0.28335583  0.51795736  0.26803986    -0.24200
C666        C  0.29264392  0.54004290  0.29050865    -0.01200
H667        H  0.27349946  0.46739787  0.27270336     0.12600
H668        H  0.27467297  0.52274337  0.24417967     0.12600
N669        N  0.65841416  0.71770149  0.50199327    -0.03700
C670        C  0.66296319  0.72202011  0.47008471    -0.01100
C671        C  0.69320900  0.73602458  0.46374986    -0.24000
C672        C  0.70761266  0.74151521  0.49246065    -0.24200
C673        C  0.68608130  0.73042868  0.51557252    -0.01200
H674        H  0.70251653  0.74389157  0.44078255     0.12600
H675        H  0.73045661  0.75422354  0.49629109     0.12600
N676        N  0.68646209  0.38676073  0.50764285    -0.03700
C677        C  0.71054166  0.38761918  0.48424308    -0.01100
C678        C  0.73990123  0.39833071  0.49711309    -0.24000
C679        C  0.73514674  0.40269324  0.52857915    -0.24200
C680        C  0.70404438  0.39150887  0.53530017    -0.01200
H681        H  0.76415049  0.39743354  0.48662071     0.12600
H682        H  0.75500551  0.40538970  0.54547856     0.12600
N683        N  0.29014191  0.71077914  0.50089586    -0.03700
C684        C  0.27892857  0.71593887  0.47056469    -0.01100
C685        C  0.26415682  0.74501634  0.46819860    -0.24000
C686        C  0.26521655  0.75838384  0.49755067    -0.24200
C687        C  0.28125061  0.73764154  0.51731453    -0.01200
H688        H  0.25196599  0.75460594  0.44750918     0.12600
H689        H  0.25400312  0.78045559  0.50430866     0.12600
N690        N  0.27564488  0.37261296  0.48999087    -0.03700
C691        C  0.25449169  0.37076726  0.46451800    -0.01100
C692        C  0.22210414  0.37028354  0.47500401    -0.24000
C693        C  0.22242975  0.37116722  0.50698938    -0.24200
C694        C  0.25486498  0.37070124  0.51590197    -0.01200
H695        H  0.20023079  0.36581693  0.46114565     0.12600
H696        H  0.20121074  0.36696248  0.52222326     0.12600
O697        O  0.89271841  0.96859272  0.99117763    -0.86700
O698        O  0.07840449  0.97828954  0.00702253    -0.86900
O699        O  0.99274615  0.94099563  0.93882345    -0.88500
O700        O  0.98695756  0.92893267  0.04331129    -0.87300
O701        O  0.97917386  0.96057975  0.08700552    -0.86900
O702        O  0.99702885  0.98448734  0.90708162    -0.88200
O703        O  0.04215750  0.93968496  0.99255547    -0.86700
O704        O  0.93428381  0.93320155  0.98697458    -0.86300
Zr705      Zr  0.98661173  0.96099501  0.99452468     2.84300
O706        O  0.01522374  0.98990527  0.03371457    -1.08300
O707        O  0.95442315  0.99570865  0.96503552    -1.09000
C708        C  0.90348008  0.94022419  0.98676021     1.06400
C709        C  0.07148291  0.94948041  0.99904913     1.06400
C710        C  0.99687845  0.95435616  0.91104019     1.09300
C711        C  0.98269200  0.93300904  0.07366473     1.07100
H712        H  0.03609135  0.98750068  0.95664027     0.32700
O713        O  0.02062329  0.99845787  0.97001311    -1.29200
H714        H  0.93554902  0.97175902  0.03969365     0.32300
O715        O  0.94951392  0.98707774  0.02896023    -1.30900
O716        O  0.07319513  0.08097523  0.00974265    -0.86700
O717        O  0.88604330  0.07147440  0.00169056    -0.88200
O718        O  0.04755634  0.03527726  0.91816379    -0.86800
O719        O  0.03058027  0.01278853  0.09675896    -0.86800
O720        O  0.92431085  0.01255271  0.09162725    -0.86500
O721        O  0.93577259  0.02720337  0.91094220    -0.86300
O722        O  0.98115023  0.11918990  0.95457594    -0.86700
O723        O  0.97802919  0.10945945  0.06437174    -0.86200
O724        O  0.98877854  0.08341427  0.91400672    -0.87200
O725        O  0.97714788  0.06615899  0.09811082    -0.86400
O726        O  0.08084825  0.02840032  0.96115865    -0.86800
O727        O  0.89251173  0.02230752  0.94619636    -0.86500
O728        O  0.88770768  0.01706215  0.05088493    -0.86200
O729        O  0.07171232  0.02590511  0.06211822    -0.86600
O730        O  0.03398513  0.11919197  0.01125183    -0.86900
O731        O  0.92167928  0.11290015  0.00980004    -0.88200
Zr732      Zr  0.04815738  0.02813948  0.00872843     2.83100
Zr733      Zr  0.91710387  0.02172422  0.99903240     2.83500
Zr734      Zr  0.98931895  0.03187873  0.93864930     2.84100
Zr735      Zr  0.97879754  0.01658252  0.06720831     2.83400
Zr736      Zr  0.97943652  0.09077724  0.00818457     2.84200
O737        O  0.94752878  0.05160969  0.03556120    -1.08800
O738        O  0.01716122  0.06238953  0.97675787    -1.08300
C739        C  0.06458777  0.11024957  0.01098126     1.06400
C740        C  0.89188173  0.10125313  0.00672710     1.09000
C741        C  0.07640187  0.03235990  0.93120354     1.06600
C742        C  0.06119680  0.01831905  0.09025804     1.06900
C743        C  0.89475768  0.01420948  0.08095732     1.06500
C744        C  0.90463752  0.02392379  0.91770651     1.06100
C745        C  0.98488034  0.11168405  0.92439955     1.06500
C746        C  0.97736826  0.09637758  0.09253803     1.06000
H747        H  0.93740890  0.07176426  0.95825875     0.32700
O748        O  0.95107854  0.05863846  0.97142746    -1.29900
H749        H  0.02343886  0.06753343  0.05546137     0.32700
O750        O  0.01079979  0.05547388  0.04026415    -1.31300
O751        O  0.47349922  0.62497705  0.56232570    -0.86700
O752        O  0.47350052  0.44355886  0.55472447    -0.86900
O753        O  0.41400104  0.53236548  0.58998536    -0.88500
O754        O  0.52009373  0.53549963  0.60007260    -0.87300
O755        O  0.56496263  0.53658240  0.56784226    -0.86900
O756        O  0.37921579  0.53754127  0.54792793    -0.88200
O757        O  0.46748989  0.48150133  0.59346827    -0.86700
O758        O  0.46785396  0.58413877  0.59820659    -0.86300
Zr759      Zr  0.47001735  0.53351827  0.56875244     2.84300
O760        O  0.50652952  0.50291627  0.53806734    -1.08300
O761        O  0.44046369  0.56703997  0.53588602    -1.09000
C762        C  0.46992414  0.61392544  0.59084995     1.06400
C763        C  0.47038377  0.45245138  0.58463602     1.06400
C764        C  0.38504759  0.53524249  0.57804407     1.09300
C765        C  0.55142929  0.53663327  0.59613244     1.07100
H766        H  0.42590253  0.48864853  0.54301323     0.32700
O767        O  0.44097128  0.50246322  0.53161276    -1.29200
H768        H  0.51893059  0.58002855  0.55765475     0.32300
O769        O  0.50682096  0.56755511  0.54239897    -1.30900
O770        O  0.48046712  0.45157786  0.44397933    -0.86700
O771        O  0.47913954  0.63335104  0.46152067    -0.88200
O772        O  0.38415322  0.48521836  0.49527085    -0.86800
O773        O  0.57139262  0.48664096  0.50872988    -0.86800
O774        O  0.56964658  0.58942747  0.51885424    -0.86500
O775        O  0.38288495  0.58721561  0.50118230    -0.86300
O776        O  0.43019462  0.54723410  0.41010371    -0.86700
O777        O  0.53995273  0.54535269  0.41974887    -0.86200
O778        O  0.38767194  0.53965134  0.44511010    -0.87200
O779        O  0.57539387  0.54443699  0.46176048    -0.86400
O780        O  0.42248068  0.44628405  0.49283085    -0.86800
O781        O  0.42184480  0.62401388  0.51363460    -0.86500
O782        O  0.53129295  0.62789687  0.51346730    -0.86200
O783        O  0.53291449  0.44700641  0.50192172    -0.86600
O784        O  0.48044692  0.49442700  0.41028651    -0.86900
O785        O  0.48392884  0.59997494  0.41873228    -0.81800
Zr786      Zr  0.47737190  0.47175717  0.50060802     2.83100
Zr787      Zr  0.47705417  0.60151477  0.50970979     2.83500
Zr788      Zr  0.41128383  0.53684394  0.49869207     2.84100
Zr789      Zr  0.54334755  0.53767482  0.51176842     2.83400
Zr790      Zr  0.48276005  0.54417682  0.44021543     2.84200
O791        O  0.51342189  0.57200734  0.47852411    -1.08800
O792        O  0.44844532  0.50792737  0.46796732    -1.08300
C793        C  0.48069252  0.46422401  0.41542458     1.06400
C794        C  0.48197078  0.62811559  0.43134350     1.09000
C795        C  0.39226410  0.45595953  0.49225210     1.06600
C796        C  0.56306742  0.45725710  0.50491392     1.06900
C797        C  0.56128827  0.61872376  0.51728643     1.06500
C798        C  0.39168710  0.61559609  0.50870745     1.06100
C799        C  0.39900556  0.54409333  0.41654463     1.06500
C800        C  0.56943169  0.54590587  0.43143736     1.06000
H801        H  0.43370953  0.58695171  0.45923414     0.32700
O802        O  0.44647101  0.57275507  0.47213015    -1.29900
H803        H  0.52719893  0.49728645  0.46058267     0.32700
O804        O  0.51219912  0.50897051  0.47389524    -1.31300
C805        C  0.36464391  0.40142434  0.50123595    -0.02100
C806        C  0.36388371  0.43252698  0.48854385     0.07600
C807        C  0.33394208  0.44256552  0.47480763    -0.02200
C808        C  0.30502753  0.42375772  0.47696943    -0.02200
C809        C  0.30547634  0.39272854  0.48998758     0.07800
C810        C  0.33559764  0.38239251  0.50314017    -0.02400
Br811      Br  0.33772233  0.34266659  0.52532392    -0.00900
Br812      Br  0.40560069  0.38341802  0.51473160    -0.01000
Br813      Br  0.26411905  0.44342835  0.46604960    -0.00900
Br814      Br  0.33226585  0.48121424  0.44995757    -0.00900
C815        C  0.33173263  0.63207098  0.51572209    -0.02100
C816        C  0.36541793  0.64047914  0.51127116     0.07600
C817        C  0.37341860  0.67313947  0.50829305    -0.02200
C818        C  0.34848606  0.69607469  0.50940509    -0.02200
C819        C  0.31485695  0.68741541  0.50930731     0.07800
C820        C  0.30686704  0.65495294  0.51225523    -0.02400
Br821      Br  0.26203139  0.64084043  0.51001958    -0.00900
Br822      Br  0.31851330  0.58976773  0.52845889    -0.01000
Br823      Br  0.36119957  0.73954870  0.50651173    -0.00900
Br824      Br  0.41789467  0.68792661  0.49907318    -0.00900
C825        C  0.64487544  0.42231012  0.47871275    -0.02100
C826        C  0.65319475  0.40089336  0.50412280     0.07600
C827        C  0.62767512  0.39495682  0.52720325    -0.02200
C828        C  0.59827115  0.41297973  0.52770300    -0.02200
C829        C  0.59118293  0.43428254  0.50293886     0.07800
C830        C  0.61322243  0.43604525  0.47708580    -0.02400
Br831      Br  0.59793758  0.45493411  0.43790942    -0.00900
Br832      Br  0.67554771  0.43743560  0.44683710    -0.01000
Br833      Br  0.56703651  0.40824927  0.56218692    -0.00900
Br834      Br  0.63008282  0.36022890  0.55670608    -0.00900
C835        C  0.64507845  0.66081596  0.50650669    -0.02100
C836        C  0.63751978  0.69231667  0.51425740     0.07600
C837        C  0.60667537  0.69852521  0.52801714    -0.02200
C838        C  0.58247025  0.67428674  0.53103097    -0.02200
C839        C  0.58843100  0.64344924  0.51911093     0.07800
C840        C  0.62078859  0.63678372  0.50816088    -0.02400
Br841      Br  0.63271315  0.59575867  0.49222716    -0.00900
Br842      Br  0.68849774  0.65086894  0.49070565    -0.01000
Br843      Br  0.54193223  0.68360583  0.55303560    -0.00900
Br844      Br  0.59776794  0.74034286  0.54288440    -0.00900
C845        C  0.38216323  0.53331609  0.35844140    -0.02100
C846        C  0.37407253  0.54451401  0.38945584     0.07600
C847        C  0.34094668  0.55416479  0.39475826    -0.02200
C848        C  0.31633894  0.54907911  0.37131096    -0.02200
C849        C  0.32417840  0.53558889  0.34166051     0.07800
C850        C  0.35757527  0.52954441  0.33487498    -0.02400
Br851      Br  0.36952033  0.51404770  0.29332297    -0.00900
Br852      Br  0.42629742  0.52051209  0.34768267    -0.01000
Br853      Br  0.27164700  0.56082809  0.37948322    -0.00900
Br854      Br  0.32863877  0.57604950  0.43334609    -0.00900
C855        C  0.45863062  0.66444317  0.38829998    -0.02100
C856        C  0.48302894  0.65773803  0.41103268     0.07600
C857        C  0.50478900  0.68241928  0.41959952    -0.02200
C858        C  0.49976793  0.71389090  0.40923867    -0.02200
C859        C  0.47539537  0.72118213  0.38604359     0.07800
C860        C  0.45554948  0.69541256  0.37513188    -0.02400
Br861      Br  0.42410562  0.70152512  0.34167135    -0.00900
Br862      Br  0.42799843  0.63146504  0.37660309    -0.01000
Br863      Br  0.52366929  0.74622183  0.43184691    -0.00900
Br864      Br  0.54213092  0.67279326  0.44609151    -0.00900
C865        C  0.59385188  0.55861650  0.37633164    -0.02100
C866        C  0.59836428  0.54739956  0.40795003     0.07600
C867        C  0.63022819  0.53597490  0.41562069    -0.02200
C868        C  0.65539791  0.53409928  0.39190052    -0.02200
C869        C  0.64927543  0.54180605  0.35952350     0.07800
C870        C  0.61770160  0.55330433  0.35225031    -0.02400
Br871      Br  0.60381649  0.55617502  0.30879062    -0.00900
Br872      Br  0.55623776  0.58391284  0.36538847    -0.01000
Br873      Br  0.69825572  0.52061535  0.40462279    -0.00900
Br874      Br  0.64085788  0.52200378  0.45831434    -0.00900
C875        C  0.49297443  0.43999724  0.32740282    -0.02100
C876        C  0.47913388  0.40915627  0.32523683     0.07600
C877        C  0.46362215  0.39697625  0.35325780    -0.02200
C878        C  0.46428931  0.41414170  0.38275069    -0.02200
C879        C  0.48147397  0.44354897  0.38536164     0.07800
C880        C  0.49691247  0.45533379  0.35711840    -0.02400
Br881      Br  0.52587700  0.49192232  0.35823449    -0.00900
Br882      Br  0.50040784  0.46496996  0.28943165    -0.01000
Br883      Br  0.43986170  0.39776049  0.41887750    -0.00900
Br884      Br  0.43845025  0.35828682  0.35077591    -0.00900
C885        C  0.62577908  0.53793703  0.65523030    -0.02100
C886        C  0.61037052  0.53396292  0.68520401     0.07600
C887        C  0.57559284  0.53211694  0.68605925    -0.02200
C888        C  0.55672722  0.53460293  0.65784559    -0.02200
C889        C  0.57216035  0.53727023  0.62689317     0.07800
C890        C  0.60720902  0.54011591  0.62652599    -0.02400
Br891      Br  0.63104327  0.54881138  0.58743656    -0.00900
Br892      Br  0.67296922  0.53981891  0.65388303    -0.01000
Br893      Br  0.50926713  0.53519290  0.66434960    -0.00900
Br894      Br  0.55292435  0.52635351  0.72656555    -0.00900
C895        C  0.49584361  0.42725331  0.66743189    -0.02100
C896        C  0.47555776  0.40129127  0.67649586     0.07600
C897        C  0.45277032  0.39072524  0.65281662    -0.02200
C898        C  0.45037136  0.40656151  0.62245168    -0.02200
C899        C  0.47396642  0.42967479  0.61282921     0.07800
C900        C  0.49821194  0.43744814  0.63533323    -0.02400
Br901      Br  0.53457626  0.46348098  0.62195552    -0.00900
Br902      Br  0.51028460  0.45670721  0.69913530    -0.01000
Br903      Br  0.41297520  0.39896222  0.59589977    -0.00900
Br904      Br  0.42352514  0.35576546  0.66166336    -0.00900
C905        C  0.29736316  0.52833196  0.61052479    -0.02100
C906        C  0.30060317  0.53993407  0.64188430     0.07600
C907        C  0.33178950  0.55080872  0.65201107    -0.02200
C908        C  0.35903525  0.55034374  0.63103771    -0.02200
C909        C  0.35622840  0.53640090  0.60038344     0.07800
C910        C  0.32514631  0.52442417  0.59084407    -0.02400
Br911      Br  0.32007388  0.49982433  0.55223949    -0.00900
Br912      Br  0.25449579  0.52002712  0.59317463    -0.01000
Br913      Br  0.39976109  0.56950231  0.64528109    -0.00900
Br914      Br  0.33900327  0.56221092  0.69585780    -0.00900
C915        C  0.49213468  0.66224988  0.66433811    -0.02100
C916        C  0.46910215  0.68705055  0.66347313     0.07600
C917        C  0.44537962  0.68654035  0.63837471    -0.02200
C918        C  0.44407763  0.66098787  0.61674400    -0.02200
C919        C  0.46848513  0.63774996  0.61686714     0.07800
C920        C  0.49312056  0.63923553  0.64009745    -0.02400
Br921      Br  0.53057197  0.61215550  0.63645281    -0.00900
Br922      Br  0.52202481  0.65828820  0.69907885    -0.01000
Br923      Br  0.40817060  0.65722050  0.58708058    -0.00900
Br924      Br  0.41424652  0.72003397  0.63181248    -0.00900
C925        C  0.69490119  0.78157512  0.58957248    -0.02100
C926        C  0.71720263  0.76364815  0.60733688     0.07600
C927        C  0.72849612  0.73488745  0.59481689    -0.02200
C928        C  0.71483964  0.72220049  0.56694183    -0.02200
C929        C  0.69165657  0.73934186  0.54936803     0.07800
C930        C  0.68345234  0.77016622  0.55992574    -0.02400
Br931      Br  0.65987455  0.79847849  0.53249022    -0.00900
Br932      Br  0.68034316  0.82167929  0.60577302    -0.01000
Br933      Br  0.73007319  0.68203573  0.55210322    -0.00900
Br934      Br  0.76481008  0.71394174  0.61492426    -0.00900
C935        C  0.64131372  0.63646155  0.73848307    -0.02100
C936        C  0.66837475  0.64067149  0.75904694     0.07600
C937        C  0.68100224  0.61415723  0.77484025    -0.02200
C938        C  0.66797610  0.58363497  0.76877142    -0.02200
C939        C  0.64159894  0.57912165  0.74665179     0.07800
C940        C  0.62786687  0.60621879  0.73269301    -0.02400
Br941      Br  0.58862804  0.60329416  0.70779601    -0.00900
Br942      Br  0.62113176  0.67249082  0.71886737    -0.01000
Br943      Br  0.68757440  0.54895897  0.79179971    -0.00900
Br944      Br  0.71727773  0.61936066  0.80398047    -0.00900
C945        C  0.57218880  0.74000986  0.72402116    -0.02100
C946        C  0.59531811  0.74871452  0.70036398     0.07600
C947        C  0.58556284  0.75019287  0.66815845    -0.02200
C948        C  0.55226432  0.74507236  0.66009152    -0.02200
C949        C  0.52901587  0.73678018  0.68390096     0.07800
C950        C  0.53955201  0.73324484  0.71584266    -0.02400
Br951      Br  0.51032664  0.71872483  0.74939739    -0.00900
Br952      Br  0.58535445  0.73666171  0.76822200    -0.01000
Br953      Br  0.53809614  0.74996085  0.61657719    -0.00900
Br954      Br  0.61729598  0.76067596  0.63544327    -0.00900
C955        C  0.72322962  0.32063262  0.58911619    -0.02100
C956        C  0.72612150  0.33600124  0.61857846     0.07600
C957        C  0.71876538  0.36838150  0.62028885    -0.02200
C958        C  0.70573412  0.38456422  0.59399183    -0.02200
C959        C  0.70442639  0.37003315  0.56387219     0.07800
C960        C  0.71419723  0.33783353  0.56155184    -0.02400
Br961      Br  0.71809210  0.31707250  0.52112751    -0.00900
Br962      Br  0.73267475  0.27615623  0.58675383    -0.01000
Br963      Br  0.69057531  0.42735746  0.59883092    -0.00900
Br964      Br  0.73073061  0.39158231  0.65754758    -0.00900
C965        C  0.55840800  0.31927491  0.72850576    -0.02100
C966        C  0.58216035  0.32873403  0.75124494     0.07600
C967        C  0.58315643  0.36058352  0.76060708    -0.02200
C968        C  0.56039535  0.38226758  0.74834257    -0.02200
C969        C  0.53381946  0.37209392  0.72872905     0.07800
C970        C  0.53467772  0.34075406  0.71703105    -0.02400
Br971      Br  0.50564971  0.32724910  0.68352595    -0.00900
Br972      Br  0.55885524  0.27646037  0.71272674    -0.01000
Br973      Br  0.56725132  0.42663085  0.75757077    -0.00900
Br974      Br  0.61752421  0.37519301  0.78875323    -0.00900
C975        C  0.64597001  0.41588634  0.70040698    -0.02100
C976        C  0.67719419  0.41188843  0.71466220     0.07600
C977        C  0.69690165  0.43929796  0.71981172    -0.02200
C978        C  0.68293332  0.46943520  0.71774511    -0.02200
C979        C  0.64954638  0.47256417  0.71045950     0.07800
C980        C  0.63250753  0.44629259  0.69859346    -0.02400
Br981      Br  0.59098021  0.45253022  0.67939510    -0.00900
Br982      Br  0.62043710  0.38091824  0.68362034    -0.01000
Br983      Br  0.70921319  0.50653831  0.72587294    -0.00900
Br984      Br  0.74336326  0.43667673  0.72826235    -0.00900
C985        C  0.29676963  0.77179183  0.56400161    -0.02100
C986        C  0.28070846  0.74410401  0.55233944     0.07600
C987        C  0.25486343  0.73089333  0.57114720    -0.02200
C988        C  0.24688426  0.74373516  0.60124744    -0.02200
C989        C  0.26579436  0.76864954  0.61380525     0.07800
C990        C  0.29081658  0.78254296  0.59523044    -0.02400
Br991      Br  0.31471425  0.81854423  0.61186335    -0.00900
Br992      Br  0.32178497  0.79953803  0.53617921    -0.01000
Br993      Br  0.20920688  0.72812632  0.62508951    -0.00900
Br994      Br  0.22653231  0.69859957  0.55411052    -0.00900
C995        C  0.40398809  0.74012876  0.77876000    -0.02100
C996        C  0.37796219  0.71872432  0.77524901     0.07600
C997        C  0.38255273  0.69281507  0.75493535    -0.02200
C998        C  0.40713558  0.69387975  0.73109025    -0.02200
C999        C  0.42770434  0.72104631  0.72823335     0.07800
C1000       C  0.42789671  0.74282325  0.75446027    -0.02400
Br1001     Br  0.45825764  0.77833406  0.75759962    -0.00900
Br1002     Br  0.40283985  0.76931160  0.81401940    -0.01000
Br1003     Br  0.40926729  0.65903594  0.70197387    -0.00900
Br1004     Br  0.35147792  0.65837256  0.75726689    -0.00900
C1005       C  0.26921559  0.63514389  0.72709509    -0.02100
C1006       C  0.26938958  0.65914138  0.70388409     0.07600
C1007       C  0.27500237  0.65145401  0.67151759    -0.02200
C1008       C  0.27387535  0.61960328  0.66180525    -0.02200
C1009       C  0.27042745  0.59561179  0.68497673     0.07800
C1010       C  0.27135785  0.60362142  0.71775703    -0.02400
Br1011     Br  0.27341185  0.57116108  0.75039982    -0.00900
Br1012     Br  0.26574771  0.64518426  0.77200213    -0.01000
Br1013     Br  0.27440105  0.60949639  0.61702173    -0.00900
Br1014     Br  0.28326445  0.68405987  0.64037262    -0.00900
C1015       C  0.24945443  0.30395297  0.57508863    -0.02100
C1016       C  0.23626914  0.32069922  0.60094002     0.07600
C1017       C  0.23464436  0.35364712  0.59902757    -0.02200
C1018       C  0.24931727  0.37042250  0.57372439    -0.02200
C1019       C  0.26030379  0.35414771  0.54656812     0.07800
C1020       C  0.25975634  0.32045026  0.54722564    -0.02400
Br1021     Br  0.26861336  0.29663645  0.50900562    -0.00900
Br1022     Br  0.24949178  0.25850557  0.57681316    -0.01000
Br1023     Br  0.24941878  0.41607526  0.57383899    -0.00900
Br1024     Br  0.20606915  0.37463584  0.62781146    -0.00900
C1025       C  0.28066782  0.42821947  0.67571563    -0.02100
C1026       C  0.24888097  0.41607699  0.68292158     0.07600
C1027       C  0.22146054  0.43434213  0.67420139    -0.02200
C1028       C  0.22660802  0.46302195  0.65836936    -0.02200
C1029       C  0.25669298  0.47923748  0.66261844     0.07800
C1030       C  0.28463680  0.46087755  0.66967205    -0.02400
Br1031     Br  0.32768192  0.47874350  0.67494191    -0.00900
Br1032     Br  0.31881984  0.40148696  0.67467216    -0.01000
Br1033     Br  0.19065668  0.48257361  0.63602910    -0.00900
Br1034     Br  0.17659374  0.42251447  0.68460885    -0.00900
C1035       C  0.38924443  0.39618027  0.73744265    -0.02100
C1036       C  0.41868210  0.37918572  0.73410567     0.07600
C1037       C  0.41915638  0.34717436  0.74459037    -0.02200
C1038       C  0.38978789  0.33141301  0.75302342    -0.02200
C1039       C  0.36042096  0.34818703  0.75455873     0.07800
C1040       C  0.36045750  0.38086204  0.74841692    -0.02400
Br1041     Br  0.32123188  0.40460790  0.75711836    -0.00900
Br1042     Br  0.38923882  0.44116030  0.72986332    -0.01000
Br1043     Br  0.38948985  0.28677132  0.76279108    -0.00900
Br1044     Br  0.45955991  0.32565169  0.75282512    -0.00900
C1045       C  0.12192030  0.18224912  0.99064632    -0.02100
C1046       C  0.15230861  0.17307262  0.00435750     0.07600
C1047       C  0.15267232  0.14317876  0.01962421    -0.02200
C1048       C  0.12344087  0.12555027  0.02543416    -0.02200
C1049       C  0.09309659  0.13424702  0.01153496     0.07800
C1050       C  0.09266696  0.16345195  0.99469941    -0.02400
Br1051     Br  0.05200524  0.17849208  0.97721822    -0.00900
Br1052     Br  0.11998946  0.21882720  0.96353530    -0.01000
Br1053     Br  0.12559971  0.09024965  0.05480238    -0.00900
Br1054     Br  0.19382831  0.12244476  0.02659226    -0.00900
C1055       C  0.19551027  0.24105073  0.94189611    -0.02100
C1056       C  0.19815554  0.20770224  0.94523409     0.07600
C1057       C  0.20996999  0.19017780  0.91902388    -0.02200
C1058       C  0.21860262  0.20541898  0.89025768    -0.02200
C1059       C  0.21417187  0.23815738  0.88671388     0.07800
C1060       C  0.20187376  0.25583475  0.91227934    -0.02400
Br1061     Br  0.19544449  0.30064387  0.90684993    -0.00900
Br1062     Br  0.18875756  0.26763419  0.97856544    -0.01000
Br1063     Br  0.23928499  0.18191845  0.85643667    -0.00900
Br1064     Br  0.21994598  0.14601637  0.92455190    -0.00900
C1065       C  0.65160178  0.71168368  0.39031153    -0.02100
C1066       C  0.65511598  0.74461243  0.38532733     0.07600
C1067       C  0.64201812  0.76529509  0.40838089    -0.02200
C1068       C  0.62857646  0.75262053  0.43669454    -0.02200
C1069       C  0.63693329  0.72178952  0.44553648     0.07800
C1070       C  0.64161059  0.70039515  0.42043875    -0.02400
Br1071     Br  0.63435070  0.65610790  0.42735734    -0.00900
Br1072     Br  0.66289450  0.68174497  0.35775139    -0.01000
Br1073     Br  0.60586535  0.77853535  0.46679652    -0.00900
Br1074     Br  0.64531874  0.81034322  0.40341844    -0.00900
C1075       C  0.57154223  0.81045504  0.33518070    -0.02100
C1076       C  0.57283001  0.79489114  0.30568675     0.07600
C1077       C  0.55030813  0.77016303  0.29957999    -0.02200
C1078       C  0.52691741  0.76077103  0.32286671    -0.02200
C1079       C  0.52508458  0.77677198  0.35260654     0.07800
C1080       C  0.54978277  0.79992080  0.35916623    -0.02400
Br1081     Br  0.55656991  0.81609014  0.40184732    -0.00900
Br1082     Br  0.59968567  0.84653452  0.34324591    -0.01000
Br1083     Br  0.50024638  0.72443946  0.31322104    -0.00900
Br1084     Br  0.55110515  0.74984486  0.25824202    -0.00900
C1085       C  0.68759633  0.63348728  0.26798998    -0.02100
C1086       C  0.70875614  0.65078475  0.28783524     0.07600
C1087       C  0.71889942  0.63769804  0.31695096    -0.02200
C1088       C  0.70770879  0.60727105  0.32630083    -0.02200
C1089       C  0.68569116  0.58988446  0.30684404     0.07800
C1090       C  0.67592795  0.60350423  0.27731916    -0.02400
Br1091     Br  0.64980751  0.58004278  0.24681618    -0.00900
Br1092     Br  0.67641578  0.65039730  0.22655205    -0.01000
Br1093     Br  0.72608848  0.58833738  0.36373436    -0.00900
Br1094     Br  0.74821616  0.66174188  0.34383213    -0.00900
C1095       C  0.69289426  0.34139646  0.44774626    -0.02100
C1096       C  0.71180464  0.36925012  0.45312189     0.07600
C1097       C  0.73810685  0.37594415  0.43134803    -0.02200
C1098       C  0.74942037  0.35283889  0.41003157    -0.02200
C1099       C  0.73044237  0.32562129  0.40421484     0.07800
C1100       C  0.70223417  0.31992885  0.42351328    -0.02400
Br1101     Br  0.67735894  0.28117788  0.41794946    -0.00900
Br1102     Br  0.65284222  0.33255590  0.47111854    -0.01000
Br1103     Br  0.79205561  0.35814267  0.39028077    -0.00900
Br1104     Br  0.75671481  0.41814902  0.42691208    -0.00900
C1105       C  0.72222623  0.43117685  0.33832284    -0.02100
C1106       C  0.69608759  0.41112376  0.32908303     0.07600
C1107       C  0.66354858  0.42203204  0.33276723    -0.02200
C1108       C  0.65790645  0.45436511  0.33882933    -0.02200
C1109       C  0.68457405  0.47553522  0.34179601     0.07800
C1110       C  0.71643841  0.46303217  0.34542334    -0.02400
Br1111     Br  0.75373549  0.49123120  0.35123613    -0.00900
Br1112     Br  0.76668433  0.41611175  0.33845797    -0.01000
Br1113     Br  0.61406980  0.47065924  0.33788293    -0.00900
Br1114     Br  0.62661806  0.39405315  0.32650540    -0.00900
C1115       C  0.56748319  0.32585441  0.28249979    -0.02100
C1116       C  0.59303659  0.33760403  0.26272097     0.07600
C1117       C  0.59350026  0.36989960  0.25464849    -0.02200
C1118       C  0.56754960  0.38952366  0.26419529    -0.02200
C1119       C  0.53994012  0.37707484  0.28103715     0.07800
C1120       C  0.54178530  0.34572540  0.29253329    -0.02400
Br1121     Br  0.51226093  0.33065484  0.32508483    -0.00900
Br1122     Br  0.56794220  0.28220306  0.29602657    -0.01000
Br1123     Br  0.57085425  0.43419393  0.25548448    -0.00900
Br1124     Br  0.63111230  0.38806667  0.23269157    -0.00900
C1125       C  0.29238688  0.69416383  0.38732622    -0.02100
C1126       C  0.25894901  0.69506372  0.37832021     0.07600
C1127       C  0.23508261  0.68614368  0.40117407    -0.02200
C1128       C  0.24301195  0.68650337  0.43376262    -0.02200
C1129       C  0.27553856  0.69349280  0.44345103     0.07800
C1130       C  0.30050664  0.69277908  0.41999024    -0.02400
Br1131     Br  0.34570673  0.69271254  0.43216236    -0.00900
Br1132     Br  0.32743500  0.69707645  0.35606616    -0.01000
Br1133     Br  0.20770754  0.68523464  0.46468364    -0.00900
Br1134     Br  0.19137041  0.67452702  0.38783227    -0.00900
C1135       C  0.29010961  0.62075546  0.25059078    -0.02100
C1136       C  0.25787678  0.63069463  0.25781397     0.07600
C1137       C  0.23815868  0.61163676  0.27795489    -0.02200
C1138       C  0.25016343  0.58279684  0.28993552    -0.02200
C1139       C  0.28318428  0.57371538  0.28464736     0.07800
C1140       C  0.30294462  0.59314304  0.26461733    -0.02400
Br1141     Br  0.34768330  0.58207452  0.25564164    -0.00900
Br1142     Br  0.31645157  0.64475416  0.22034599    -0.01000
Br1143     Br  0.21963683  0.55459662  0.31073995    -0.00900
Br1144     Br  0.19505193  0.62563813  0.29059203    -0.00900
C1145       C  0.37963093  0.78760002  0.32008626    -0.02100
C1146       C  0.35014623  0.78597255  0.33753366     0.07600
C1147       C  0.35082972  0.77828622  0.37022198    -0.02200
C1148       C  0.38103498  0.77176641  0.38515827    -0.02200
C1149       C  0.41065417  0.77134372  0.36733994     0.07800
C1150       C  0.40971284  0.78114368  0.33485952    -0.02400
Br1151     Br  0.44906110  0.79024638  0.31068682    -0.00900
Br1152     Br  0.37849411  0.79908815  0.27540221    -0.01000
Br1153     Br  0.38267537  0.76743337  0.43075452    -0.00900
Br1154     Br  0.31040486  0.77726441  0.39441705    -0.00900
C1155       C  0.12020941  0.01286809  0.10941773    -0.02100
C1156       C  0.08631130  0.01661817  0.11675234     0.07600
C1157       C  0.07754651  0.02106291  0.14932046    -0.02200
C1158       C  0.10209980  0.02273547  0.17311461    -0.02200
C1159       C  0.13595776  0.02192685  0.16513566     0.07800
C1160       C  0.14454496  0.01834924  0.13271699    -0.02400
Br1161     Br  0.18907303  0.02519312  0.11874601    -0.00900
Br1162     Br  0.13447047  0.99771092  0.06819063    -0.01000
Br1163     Br  0.08908433  0.03243326  0.21607764    -0.00900
Br1164     Br  0.03241680  0.02782935  0.16238748    -0.00900
C1165       C  0.20066699  0.96407406  0.20935266    -0.02100
C1166       C  0.17193858  0.97854706  0.22152686     0.07600
C1167       C  0.15521370  0.96301081  0.24713660    -0.02200
C1168       C  0.16544664  0.93321649  0.25833109    -0.02200
C1169       C  0.19410084  0.91926603  0.24611019     0.07800
C1170       C  0.21197380  0.93517317  0.22202260    -0.02400
Br1171     Br  0.25257352  0.91741671  0.20677872    -0.00900
Br1172     Br  0.22704980  0.98459551  0.17734901    -0.01000
Br1173     Br  0.14119504  0.91206815  0.29213225    -0.00900
Br1174     Br  0.12011786  0.98333318  0.26990004    -0.00900
C1175       C  0.23615111  0.36595798  0.40881330    -0.02100
C1176       C  0.26138472  0.36026011  0.43098903     0.07600
C1177       C  0.28118668  0.33377670  0.42573006    -0.02200
C1178       C  0.27068582  0.30952472  0.40498216    -0.02200
C1179       C  0.24086988  0.31235104  0.38784416     0.07800
C1180       C  0.22358323  0.34112363  0.39015874    -0.02400
Br1181     Br  0.18093977  0.34672994  0.37122880    -0.00900
Br1182     Br  0.21527652  0.40671197  0.40812397    -0.01000
Br1183     Br  0.29594657  0.27118878  0.40325309    -0.00900
Br1184     Br  0.32433798  0.33220332  0.44352607    -0.00900
C1185       C  0.36386114  0.37978937  0.26133094    -0.02100
C1186       C  0.36302595  0.34754530  0.25304242     0.07600
C1187       C  0.39202400  0.32997497  0.25480568    -0.02200
C1188       C  0.42176236  0.34460648  0.26416029    -0.02200
C1189       C  0.42257297  0.37682317  0.27358610     0.07800
C1190       C  0.39335338  0.39413478  0.27175659    -0.02400
Br1191     Br  0.39499024  0.43844246  0.28076561    -0.00900
Br1192     Br  0.32477732  0.40461550  0.25660832    -0.01000
Br1193     Br  0.46168170  0.32106005  0.25993897    -0.00900
Br1194     Br  0.39083415  0.28576923  0.24363157    -0.00900
C1195       C  0.29500338  0.41223959  0.33596208    -0.02100
C1196       C  0.26191089  0.40628183  0.32675806     0.07600
C1197       C  0.23908894  0.43076501  0.33181444    -0.02200
C1198       C  0.25034931  0.46087190  0.34129375    -0.02200
C1199       C  0.28382932  0.46898877  0.33849769     0.07800
C1200       C  0.30588670  0.44378485  0.34083616    -0.02400
Br1201     Br  0.35043243  0.45283460  0.35240438    -0.00900
Br1202     Br  0.32614330  0.37858582  0.34114915    -0.01000
Br1203     Br  0.22061349  0.49078382  0.35911660    -0.00900
Br1204     Br  0.19252826  0.42400034  0.32637340    -0.00900
C1205       C  0.17738952  0.23461671  0.06729508    -0.02100
C1206       C  0.19623375  0.20732351  0.06204596     0.07600
C1207       C  0.21957704  0.19906938  0.08556032    -0.02200
C1208       C  0.22910786  0.22082386  0.10906888    -0.02200
C1209       C  0.21245509  0.24957220  0.11238926     0.07800
C1210       C  0.18573355  0.25584886  0.09198364    -0.02400
Br1211     Br  0.16150998  0.29457357  0.09664910    -0.00900
Br1212     Br  0.13884495  0.24235014  0.04257445    -0.01000
Br1213     Br  0.26558261  0.21092258  0.13641149    -0.00900
Br1214     Br  0.24064767  0.15844089  0.08441967    -0.00900
C1215       C  0.15347880  0.11080531  0.16743237    -0.02100
C1216       C  0.17664721  0.08736985  0.17431280     0.07600
C1217       C  0.21011749  0.09623610  0.17336477    -0.02200
C1218       C  0.21943235  0.12824693  0.17498581    -0.02200
C1219       C  0.19515508  0.15185512  0.17693879     0.07800
C1220       C  0.16258314  0.14317804  0.16848285    -0.02400
Br1221     Br  0.12971631  0.17456118  0.16003193    -0.00900
Br1222     Br  0.10951246  0.09855281  0.15694578    -0.01000
Br1223     Br  0.26566240  0.13872219  0.17657959    -0.00900
Br1224     Br  0.24331917  0.06441869  0.17629125    -0.00900
C1225       C  0.00320472  0.13393028  0.13278496    -0.02100
C1226       C  0.97564597  0.11737803  0.12127350     0.07600
C1227       C  0.94584912  0.12038456  0.13772580    -0.02200
C1228       C  0.94471736  0.13375062  0.16877373    -0.02200
C1229       C  0.97342437  0.14871845  0.18250048     0.07800
C1230       C  0.00118023  0.15166165  0.16149636    -0.02400
Br1231     Br  0.03356427  0.18450108  0.16733013    -0.00900
Br1232     Br  0.04357163  0.13283018  0.10848961    -0.01000
Br1233     Br  0.90246295  0.12977100  0.18928017    -0.00900
Br1234     Br  0.90609063  0.10807817  0.11554706    -0.00900
C1235       C  0.89437959  0.16960744  0.26179528    -0.02100
C1236       C  0.92080988  0.17813977  0.24084630     0.07600
C1237       C  0.92070140  0.20889332  0.22717285    -0.02200
C1238       C  0.89776510  0.23142971  0.23777440    -0.02200
C1239       C  0.87322526  0.22332353  0.26046827     0.07800
C1240       C  0.87218740  0.19241666  0.27285923    -0.02400
Br1241     Br  0.83960431  0.18061524  0.30457513    -0.00900
Br1242     Br  0.88464621  0.12570068  0.27202025    -0.01000
Br1243     Br  0.90079993  0.27442158  0.22220040    -0.00900
Br1244     Br  0.94962169  0.22083747  0.19235730    -0.00900
C1245       C  0.03143110  0.20154800  0.25257720    -0.02100
C1246       C  0.03286640  0.17065045  0.23933067     0.07600
C1247       C  0.06372488  0.15585895  0.23792249    -0.02200
C1248       C  0.09263078  0.17238256  0.24640672    -0.02200
C1249       C  0.09114010  0.20413967  0.25616879     0.07800
C1250       C  0.06050239  0.21851721  0.25966576    -0.02400
Br1251     Br  0.05870934  0.26159873  0.27460151    -0.00900
Br1252     Br  0.99064281  0.21965561  0.26603065    -0.01000
Br1253     Br  0.13422484  0.15106459  0.24675336    -0.00900
Br1254     Br  0.06579246  0.11202283  0.22661485    -0.00900
C1255       C  0.72007899  0.96613103  0.16233653    -0.02100
C1256       C  0.74677240  0.98527141  0.17309249     0.07600
C1257       C  0.76198945  0.97686328  0.20209333    -0.02200
C1258       C  0.74793160  0.95355625  0.22189105    -0.02200
C1259       C  0.72184341  0.93458498  0.21098054     0.07800
C1260       C  0.70811650  0.94069177  0.18096756    -0.02400
Br1261     Br  0.67355668  0.91356890  0.16484139    -0.00900
Br1262     Br  0.69990474  0.97356225  0.12146640    -0.01000
Br1263     Br  0.76438775  0.94732981  0.26465660    -0.00900
Br1264     Br  0.80389189  0.99337068  0.21439661    -0.00900
C1265       C  0.77644943  0.09581480  0.20790753    -0.02100
C1266       C  0.78151414  0.09374081  0.17459603     0.07600
C1267       C  0.79293127  0.12035615  0.15768195    -0.02200
C1268       C  0.79447832  0.15005175  0.17280110    -0.02200
C1269       C  0.78505720  0.15270124  0.20539534     0.07800
C1270       C  0.78048529  0.12479758  0.22340039    -0.02400
Br1271     Br  0.77973958  0.12588447  0.26942873    -0.00900
Br1272     Br  0.75958678  0.06036325  0.23228683    -0.01000
Br1273     Br  0.80814119  0.18624600  0.14775742    -0.00900
Br1274     Br  0.80367519  0.11613029  0.11317360    -0.00900
C1275       C  0.84039141  0.03543152  0.15337712    -0.02100
C1276       C  0.80853832  0.02783036  0.14154969     0.07600
C1277       C  0.80677561  0.01287636  0.11139498    -0.02200
C1278       C  0.83535923  0.00356105  0.09515846    -0.02200
C1279       C  0.86655915  0.01427139  0.10471741     0.07800
C1280       C  0.86909542  0.02810734  0.13544630    -0.02400
Br1281     Br  0.91154967  0.03519067  0.15480158    -0.00900
Br1282     Br  0.84610654  0.05769590  0.19305300    -0.01000
Br1283     Br  0.83177927  0.97203872  0.06253558    -0.00900
Br1284     Br  0.76650233  0.01100768  0.08775318    -0.00900
C1285       C  0.06066029  0.78467159  0.13212964    -0.02100
C1286       C  0.03259339  0.78715804  0.15188772     0.07600
C1287       C  0.03489179  0.77742240  0.18422757    -0.02200
C1288       C  0.06482099  0.76669335  0.19662250    -0.02200
C1289       C  0.09302554  0.76527329  0.17718729     0.07800
C1290       C  0.09080671  0.77411385  0.14476365    -0.02400
Br1291     Br  0.12898693  0.77094561  0.11763298    -0.00900
Br1292     Br  0.05703091  0.79429950  0.08733650    -0.01000
Br1293     Br  0.06753643  0.75359755  0.24073338    -0.00900
Br1294     Br  0.99652505  0.77583362  0.21145032    -0.00900
C1295       C  0.88565085  0.78915524  0.14780558    -0.02100
C1296       C  0.91476867  0.80380048  0.15970005     0.07600
C1297       C  0.91321966  0.81765947  0.19039960    -0.02200
C1298       C  0.88543637  0.81255643  0.21032138    -0.02200
C1299       C  0.85818717  0.79491759  0.19934457     0.07800
C1300       C  0.85768546  0.78503625  0.16739683    -0.02400
Br1301     Br  0.81774319  0.76722316  0.14987324    -0.00900
Br1302     Br  0.88349973  0.77325679  0.10472449    -0.01000
Br1303     Br  0.88486467  0.82903453  0.25326536    -0.00900
Br1304     Br  0.94817044  0.84414613  0.20575805    -0.00900
C1305       C  0.96297020  0.84699149  0.09653426    -0.02100
C1306       C  0.97827301  0.84257936  0.12643390     0.07600
C1307       C  0.99765306  0.86823451  0.13808938    -0.02200
C1308       C  0.99900270  0.89792369  0.12155601    -0.02200
C1309       C  0.98036931  0.90291774  0.09355583     0.07800
C1310       C  0.96195936  0.87699260  0.08177934    -0.02400
Br1311     Br  0.93483818  0.88204794  0.04471412    -0.00900
Br1312     Br  0.94987229  0.81101476  0.07148288    -0.01000
Br1313     Br  0.02888891  0.93067347  0.13545104    -0.00900
Br1314     Br  0.02517642  0.86218313  0.17467011    -0.00900
C1315       C  0.25280986  0.98798782  0.82410728    -0.02100
C1316       C  0.23468181  0.99173457  0.85295407     0.07600
C1317       C  0.22233516  0.96462005  0.86866500    -0.02200
C1318       C  0.22562419  0.93453019  0.85468287    -0.02200
C1319       C  0.24029335  0.93137567  0.82413038     0.07800
C1320       C  0.25364768  0.95848386  0.80892382    -0.02400
Br1321     Br  0.27118231  0.95649231  0.76592108    -0.00900
Br1322     Br  0.27924218  0.02173853  0.80533101    -0.01000
Br1323     Br  0.21133261  0.89781159  0.87859393    -0.00900
Br1324     Br  0.20405377  0.96820205  0.91096830    -0.00900
C1325       C  0.19631361  0.08950308  0.80001857    -0.02100
C1326       C  0.18883712  0.09047233  0.83277172     0.07600
C1327       C  0.17217045  0.11668706  0.84486568    -0.02200
C1328       C  0.16993713  0.14433746  0.82638738    -0.02200
C1329       C  0.18614389  0.14590810  0.79619115     0.07800
C1330       C  0.19610256  0.11736780  0.78184387    -0.02400
Br1331     Br  0.20927777  0.11568517  0.73751276    -0.00900
Br1332     Br  0.20647742  0.04996710  0.78013463    -0.01000
Br1333     Br  0.14606686  0.17946962  0.84436431    -0.00900
Br1334     Br  0.15164282  0.11452826  0.88619393    -0.00900
C1335       C  0.13699967  0.04528505  0.92613833    -0.02100
C1336       C  0.10775753  0.03329857  0.91185636     0.07600
C1337       C  0.11052658  0.01900416  0.88142329    -0.02200
C1338       C  0.14077316  0.01991754  0.86440873    -0.02200
C1339       C  0.16925797  0.03243528  0.87858611     0.07800
C1340       C  0.16751836  0.04281875  0.91054817    -0.02400
Br1341     Br  0.20692583  0.05484386  0.93332469    -0.00900
Br1342     Br  0.13651212  0.06792556  0.96623629    -0.01000
Br1343     Br  0.14401574  0.00280799  0.82212803    -0.00900
Br1344     Br  0.07438674  0.99535278  0.86406652    -0.00900
C1345       C  0.93699718  0.81620152  0.80481427    -0.02100
C1346       C  0.93712175  0.84956696  0.80552239     0.07600
C1347       C  0.90777770  0.86498489  0.81304416    -0.02200
C1348       C  0.87815049  0.84785766  0.81618228    -0.02200
C1349       C  0.87706696  0.81523321  0.80798477     0.07800
C1350       C  0.90704950  0.79909859  0.80508274    -0.02400
Br1351     Br  0.90738913  0.75363193  0.80157343    -0.00900
Br1352     Br  0.97749400  0.79377420  0.80098025    -0.01000
Br1353     Br  0.83982869  0.87090050  0.83012854    -0.00900
Br1354     Br  0.90717407  0.91022468  0.81474779    -0.00900
C1355       C  0.07206258  0.89262075  0.77032011    -0.02100
C1356       C  0.04617753  0.87117775  0.76362439     0.07600
C1357       C  0.05369379  0.84278428  0.74696575    -0.02200
C1358       C  0.08641696  0.83528631  0.73929605    -0.02200
C1359       C  0.11200479  0.85643973  0.74676395     0.07800
C1360       C  0.10464178  0.88533822  0.76174776    -0.02400
Br1361     Br  0.13978967  0.91514548  0.77054202    -0.00900
Br1362     Br  0.06383106  0.93272014  0.78997648    -0.01000
Br1363     Br  0.09646365  0.79480384  0.72057200    -0.00900
Br1364     Br  0.01982386  0.81348289  0.73344430    -0.00900
C1365       C  0.00838763  0.88271773  0.85454968    -0.02100
C1366       C  0.99808247  0.89497448  0.82502212     0.07600
C1367       C  0.99138550  0.92769521  0.82303435    -0.02200
C1368       C  0.99418209  0.94744101  0.85004249    -0.02200
C1369       C  0.00050236  0.93439245  0.88094558     0.07800
C1370       C  0.00993021  0.90213420  0.88216788    -0.02400
Br1371     Br  0.02933718  0.88500108  0.92024476    -0.00900
Br1372     Br  0.02115513  0.83925065  0.85683359    -0.01000
Br1373     Br  0.99057774  0.99264049  0.84213845    -0.00900
Br1374     Br  0.97871273  0.94644515  0.78271669    -0.00900
C1375       C  0.89352287  0.17796271  0.76151132    -0.02100
C1376       C  0.92063039  0.19088722  0.77878256     0.07600
C1377       C  0.91894713  0.22328325  0.78803314    -0.02200
C1378       C  0.89244306  0.24207994  0.77777092    -0.02200
C1379       C  0.86810018  0.22951679  0.75753570     0.07800
C1380       C  0.86907666  0.19751711  0.74920093    -0.02400
Br1381     Br  0.83467807  0.17953284  0.72299718    -0.00900
Br1382     Br  0.88602879  0.13278651  0.75788950    -0.01000
Br1383     Br  0.88807387  0.28503724  0.79253531    -0.00900
Br1384     Br  0.94981887  0.24205129  0.81760315    -0.00900
C1385       C  0.08868350  0.18325614  0.74973190    -0.02100
C1386       C  0.08690092  0.21481023  0.73927158     0.07600
C1387       C  0.05719502  0.23082487  0.74291530    -0.02200
C1388       C  0.02949184  0.21523924  0.75628392    -0.02200
C1389       C  0.03261306  0.18535045  0.77160148     0.07800
C1390       C  0.06263820  0.16922459  0.76726643    -0.02400
Br1391     Br  0.06773396  0.12702388  0.78415919    -0.00900
Br1392     Br  0.12695197  0.15920457  0.73909995    -0.01000
Br1393     Br  0.98760730  0.23279639  0.74678289    -0.00900
Br1394     Br  0.05486764  0.27450141  0.72990754    -0.00900
C1395       C  0.94951896  0.16073753  0.85613170    -0.02100
C1396       C  0.97821941  0.16955737  0.83762680     0.07600
C1397       C  0.00853694  0.16680836  0.85439918    -0.02200
C1398       C  0.01101037  0.14831511  0.88272789    -0.02200
C1399       C  0.98274868  0.13623065  0.89831940     0.07800
C1400       C  0.95207720  0.14349919  0.88525680    -0.02400
Br1401     Br  0.91309216  0.12768740  0.90697059    -0.00900
Br1402     Br  0.90645539  0.17663892  0.84805584    -0.01000
Br1403     Br  0.05362321  0.13801963  0.89930498    -0.00900
Br1404     Br  0.04528756  0.19388776  0.84387858    -0.00900
C1405       C  0.78233025  0.93099278  0.77388839    -0.02100
C1406       C  0.79978554  0.91016547  0.75409682     0.07600
C1407       C  0.83186187  0.91821703  0.74445298    -0.02200
C1408       C  0.84569648  0.94777717  0.75301616    -0.02200
C1409       C  0.82816795  0.96912203  0.77313518     0.07800
C1410       C  0.79694396  0.95927584  0.78474090    -0.02400
Br1411     Br  0.77296379  0.98370141  0.81535838    -0.00900
Br1412     Br  0.73711361  0.92114209  0.78484072    -0.01000
Br1413     Br  0.88884789  0.95796612  0.73632493    -0.00900
Br1414     Br  0.85690284  0.88827902  0.71984967    -0.00900
C1415       C  0.77922203  0.08199766  0.77955577    -0.02100
C1416       C  0.81114075  0.08059034  0.79262051     0.07600
C1417       C  0.82281590  0.10641292  0.81044626    -0.02200
C1418       C  0.80434143  0.13449863  0.81239563    -0.02200
C1419       C  0.77520364  0.13791337  0.79412911     0.07800
C1420       C  0.76098138  0.11002799  0.78126824    -0.02400
Br1421     Br  0.71533638  0.10838192  0.76884182    -0.00900
Br1422     Br  0.76062055  0.04599140  0.75754974    -0.01000
Br1423     Br  0.81749548  0.16587476  0.84320701    -0.00900
Br1424     Br  0.86444395  0.10319702  0.83174266    -0.00900
C1425       C  0.87766154  0.00511967  0.83473943    -0.02100
C1426       C  0.84728891  0.02072077  0.83065115     0.07600
C1427       C  0.83326559  0.03475949  0.85853900    -0.02200
C1428       C  0.85182157  0.03696547  0.88724062    -0.02200
C1429       C  0.88163059  0.02050068  0.89014782     0.07800
C1430       C  0.89084007  0.00087899  0.86513259    -0.02400
Br1431     Br  0.91800506  0.96529010  0.87403211    -0.00900
Br1432     Br  0.90834312  0.99976711  0.80056558    -0.01000
Br1433     Br  0.83697533  0.06321322  0.92185468    -0.00900
Br1434     Br  0.78942391  0.05125055  0.85880562    -0.00900
C1435       C  0.15589676  0.87540630  0.09400343    -0.02100
C1436       C  0.18206705  0.87811256  0.07208645     0.07600
C1437       C  0.21333522  0.88445082  0.08481309    -0.02200
C1438       C  0.22039840  0.87507835  0.11618156    -0.02200
C1439       C  0.19497393  0.86254722  0.13580871     0.07800
C1440       C  0.16203056  0.86660910  0.12581656    -0.02400
Br1441     Br  0.12479099  0.85842632  0.15362963    -0.00900
Br1442     Br  0.11197307  0.88390118  0.08058427    -0.01000
Br1443     Br  0.26517432  0.87801927  0.13081412    -0.00900
Br1444     Br  0.24815905  0.89880341  0.05714603    -0.00900
C1445       C  0.18232341  0.80545938  0.94671775    -0.02100
C1446       C  0.19736710  0.82982827  0.96477367     0.07600
C1447       C  0.22787567  0.84243857  0.95381497    -0.02200
C1448       C  0.24092174  0.83361153  0.92401059    -0.02200
C1449       C  0.22453513  0.81094720  0.90554926     0.07800
C1450       C  0.19563653  0.79645792  0.91712221    -0.02400
Br1451     Br  0.17539698  0.76289887  0.89269571    -0.00900
Br1452     Br  0.14579175  0.78128531  0.96347513    -0.01000
Br1453     Br  0.28155118  0.85217649  0.90835150    -0.00900
Br1454     Br  0.25524707  0.86733999  0.98129722    -0.00900
C1455       C  0.09237280  0.89278146  0.00181183    -0.02100
C1456       C  0.09895148  0.92572009  0.99774061     0.07600
C1457       C  0.13231172  0.93552134  0.99360252    -0.02200
C1458       C  0.15811312  0.91362500  0.99673011    -0.02200
C1459       C  0.15149082  0.88147791  0.00306050     0.07800
C1460       C  0.11842148  0.87119289  0.00455038    -0.02400
Br1461     Br  0.10848290  0.82805956  0.01645270    -0.00900
Br1462     Br  0.04816285  0.87588746  0.00742669    -0.01000
Br1463     Br  0.20273700  0.92823688  0.99337573    -0.00900
Br1464     Br  0.14397848  0.97869078  0.98268530    -0.00900
C1465       C  0.75911839  0.24418267  0.09629124    -0.02100
C1466       C  0.73650980  0.23421003  0.12013828     0.07600
C1467       C  0.72414108  0.20303868  0.11876691    -0.02200
C1468       C  0.73318708  0.18273773  0.09354735    -0.02200
C1469       C  0.75286309  0.19369540  0.06742474     0.07800
C1470       C  0.76737558  0.22417201  0.07031885    -0.02400
Br1471     Br  0.80046730  0.23835445  0.04074176    -0.00900
Br1472     Br  0.77868233  0.28584932  0.09940785    -0.01000
Br1473     Br  0.71886572  0.13907436  0.09564377    -0.00900
Br1474     Br  0.69565887  0.18735820  0.15243954    -0.00900
C1475       C  0.72781231  0.23599655  0.92235959    -0.02100
C1476       C  0.72404281  0.21772613  0.89463173     0.07600
C1477       C  0.73201196  0.18530930  0.89600901    -0.02200
C1478       C  0.74424488  0.17159695  0.92432061    -0.02200
C1479       C  0.74701209  0.18951260  0.95253060     0.07800
C1480       C  0.73738476  0.22174476  0.95140523    -0.02400
Br1481     Br  0.73252551  0.24579028  0.99004177    -0.00900
Br1482     Br  0.72036731  0.28086578  0.92027045    -0.01000
Br1483     Br  0.75501218  0.12732916  0.92529786    -0.00900
Br1484     Br  0.72436455  0.15916750  0.85924381    -0.00900
C1485       C  0.80136720  0.12728882  0.02117203    -0.02100
C1486       C  0.79994056  0.15863942  0.00897961     0.07600
C1487       C  0.82931877  0.17061482  0.99458247    -0.02200
C1488       C  0.85960747  0.15345691  0.99563575    -0.02200
C1489       C  0.86122657  0.12258806  0.00920434     0.07800
C1490       C  0.83144721  0.11046754  0.02277231    -0.02400
Br1491     Br  0.83132132  0.07100060  0.04595659    -0.00900
Br1492     Br  0.76130913  0.10420538  0.03053770    -0.01000
Br1493     Br  0.89874287  0.17275883  0.97795996    -0.00900
Br1494     Br  0.82734400  0.20869133  0.96948914    -0.00900
C1495       C  0.82131685  0.84813318  0.09044513    -0.02100
C1496       C  0.80256336  0.83710869  0.06464310     0.07600
C1497       C  0.76805806  0.83502782  0.06784277    -0.02200
C1498       C  0.75308037  0.84197460  0.09703001    -0.02200
C1499       C  0.77245993  0.84607768  0.12441513     0.07800
C1500       C  0.80642970  0.85262791  0.12052917    -0.02400
Br1501     Br  0.83325520  0.86632006  0.15580898    -0.00900
Br1502     Br  0.86771534  0.85393508  0.08533666    -0.01000
Br1503     Br  0.70582470  0.84470739  0.09967276    -0.00900
Br1504     Br  0.74112069  0.81763481  0.03437500    -0.00900
C1505       C  0.79938059  0.76356045  0.90987134    -0.02100
C1506       C  0.77052573  0.77830529  0.89988584     0.07600
C1507       C  0.75867696  0.80427167  0.91709625    -0.02200
C1508       C  0.77591456  0.81609533  0.94359251    -0.02200
C1509       C  0.80443532  0.80083807  0.95476311     0.07800
C1510       C  0.81652884  0.77499468  0.93668069    -0.02400
Br1511     Br  0.85771287  0.75568040  0.94731340    -0.00900
Br1512     Br  0.81570877  0.72795529  0.88615869    -0.01000
Br1513     Br  0.76021449  0.85417477  0.96217122    -0.00900
Br1514     Br  0.71808935  0.82356411  0.90382601    -0.00900
C1515       C  0.84543214  0.91657149  0.99150637    -0.02100
C1516       C  0.87904857  0.91304344  0.98366055     0.07600
C1517       C  0.88999906  0.88202072  0.97742708    -0.02200
C1518       C  0.87082596  0.85554628  0.98670867    -0.02200
C1519       C  0.83805490  0.85896392  0.99759387     0.07800
C1520       C  0.82595851  0.89013864  0.00087078    -0.02400
Br1521     Br  0.78484090  0.89850197  0.02201380    -0.00900
Br1522     Br  0.82378100  0.95611642  0.98337980    -0.01000
Br1523     Br  0.89287971  0.81582818  0.99122402    -0.00900
Br1524     Br  0.92952148  0.87489821  0.95269168    -0.00900
loop_ 
_geom_bond_atom_site_label_1 
_geom_bond_atom_site_label_2 
_geom_bond_distance 
_geom_bond_site_symmetry_2 
_ccdc_geom_bond_type 
N1            C5   1.378   1_554  A
N1            C2   1.366       .  A
N1         C1519   1.463   1_554  S
C2            C3   1.379       .  A
C2         C1496   1.478       .  S
C3            C4   1.359       .  A
C3            H6   1.083       .  S
C4            C5   1.383   1_554  A
C4            H7   1.082       .  S
C5         C1509   1.506       .  S
N8           C12   1.384   1_554  A
N8            C9   1.390       .  A
N8         C1486   1.489       .  S
C9           C10   1.385       .  A
C9         C1469   1.522       .  S
C10          C11   1.349   1_554  A
C10          H13   1.082       .  S
C11          C12   1.377       .  A
C11          H14   1.084       .  S
C12        C1479   1.501       .  S
N15          C19   1.375   1_554  A
N15          C16   1.364       .  A
N15        C1459   1.455       .  S
C16          C17   1.382       .  A
C16        C1436   1.486       .  S
C17          C18   1.362       .  A
C17          H20   1.083       .  S
C18          C19   1.380   1_554  A
C18          H21   1.082       .  S
C19        C1446   1.488       .  S
N22          C26   1.381       .  A
N22          C23   1.374       .  A
N22        C1426   1.473       .  S
C23          C24   1.380       .  A
C23        C1416   1.495       .  S
C24          C25   1.361       .  A
C24          H27   1.083       .  S
C25          C26   1.382       .  A
C25          H28   1.082       .  S
C26        C1409   1.510   1_545  S
N29          C33   1.390   1_655  A
N29          C30   1.384       .  A
N29        C1396   1.505       .  S
C30          C31   1.388       .  A
C30        C1376   1.522       .  S
C31          C32   1.340       .  A
C31          H34   1.079       .  S
C32          C33   1.371   1_655  A
C32          H35   1.084   1_655  S
C33        C1389   1.509       .  S
N36          C40   1.375   1_655  A
N36          C37   1.366       .  A
N36        C1366   1.462       .  S
C37          C38   1.377       .  A
C37        C1346   1.486       .  S
C38          C39   1.364       .  A
C38          H41   1.082       .  S
C39          C40   1.385   1_655  A
C39          H42   1.082       .  S
C40        C1356   1.499       .  S
N43          C47   1.366       .  A
N43          C44   1.355       .  A
N43        C1339   1.451       .  S
C44          C45   1.380       .  A
C44        C1326   1.480       .  S
C45          C46   1.370       .  A
C45          H48   1.082       .  S
C46          C47   1.385       .  A
C46          H49   1.082       .  S
C47        C1316   1.493   1_545  S
N50          C54   1.379       .  A
N50          C51   1.383       .  A
N50        C1306   1.476       .  S
C51          C52   1.382       .  A
C51        C1296   1.508       .  S
C52          C53   1.353       .  A
C52          H55   1.082       .  S
C53          C54   1.379       .  A
C53          H56   1.083       .  S
C54        C1286   1.492   1_655  S
N57          C61   1.375       .  A
N57          C58   1.366       .  A
N57        C1276   1.467       .  S
C58          C59   1.378       .  A
C58        C1266   1.476       .  S
C59          C60   1.356       .  A
C59          H62   1.083       .  S
C60          C61   1.384       .  A
C60          H63   1.082       .  S
C61        C1256   1.499   1_545  S
N64          C68   1.382   1_655  A
N64          C65   1.377       .  A
N64        C1229   1.497       .  S
C65          C66   1.387       .  A
C65        C1236   1.519       .  S
C66          C67   1.350       .  A
C66          H69   1.080       .  S
C67          C68   1.373   1_655  A
C67          H70   1.084   1_655  S
C68        C1246   1.504       .  S
Zr71         O72   2.441       .  S
Zr71         O73   2.432       .  S
Zr71         O74   2.381       .  S
Zr71         O77   2.392       .  S
Zr71         O79   2.377       .  S
Zr71         O80   2.377       .  S
Zr71         O81   2.400       .  S
Zr71         O82   2.398       .  S
O72         H128   0.990       .  S
O72         H136   0.991       .  S
O73          C93   1.283       .  A
O74          C95   1.273       .  A
O75         Zr85   2.474       .  S
O75          C94   1.287       .  A
O76         Zr84   2.499       .  S
O76          C95   1.297       .  A
O77          C94   1.269       .  A
O78         Zr86   2.462       .  S
O78          C93   1.290       .  A
O79         Zr84   2.383       .  S
O79         Zr86   2.370       .  S
O80         Zr85   2.408       .  S
O80         Zr86   2.346       .  S
O80         H115   0.964       .  S
O81         Zr84   2.404       .  S
O81        Zr101   2.406       .  S
O81         H118   0.966       .  S
O82         Zr85   2.408       .  S
O82        Zr101   2.394       .  S
Zr83        O108   2.439       .  S
Zr83        O102   2.444       .  S
Zr83        O110   2.396       .  S
Zr83         O98   2.371       .  S
Zr83         O89   2.394       .  S
Zr83         O90   2.409       .  S
Zr83         O91   2.380       .  S
Zr83         O92   2.374       .  S
Zr84        O103   2.437       .  S
Zr84         O96   2.435       .  S
Zr84         O97   2.485       .  S
Zr84         O90   2.397       .  S
Zr84         O91   2.394       .  S
Zr85         O87   2.435       .  S
Zr85        O109   2.434       .  S
Zr85        O111   2.484       .  S
Zr85         O89   2.399       .  S
Zr85         O92   2.388       .  S
Zr86        O112   2.435       .  S
Zr86        O113   2.437       .  S
Zr86         O88   2.435       .  S
Zr86         O89   2.411       .  S
Zr86         O90   2.392       .  S
O87         H124   0.990       .  S
O88         H119   0.990       .  S
O88         H133   0.990       .  S
O90         H116   0.966       .  S
O91        Zr101   2.366       .  S
O92        Zr101   2.364       .  S
O92         H117   0.965       .  S
C93        C1196   1.504       .  S
C94        C1179   1.495       .  S
C95        C1186   1.481       .  S
O96         H132   0.990       .  S
O97          C99   1.296       .  A
O98          C99   1.270       .  A
C99        C1209   1.482       .  S
O100       Zr101   2.438       .  S
O100        H129   0.990       .  S
Zr101       O104   2.436       .  S
Zr101       O105   2.442       .  S
Zr101       O106   2.436       .  S
O102        C107   1.285       .  A
O103        H120   0.990       .  S
O103        H135   0.990       .  S
O104        H121   0.990       .  S
O105        H125   0.990       .  S
O105        H134   0.990       .  S
O106        C107   1.285       .  A
C107       C1219   1.504       .  S
O108        H127   0.991       .  S
O108        H131   0.990       .  S
O109        H123   0.990       .  S
O109        H130   0.990       .  S
O110        C114   1.278       .  A
O111        C114   1.295       .  A
O112        H122   0.990       .  S
O113        H126   0.990       .  S
C114       C1249   1.477       .  S
N137        C141   1.383       .  A
N137        C138   1.371       .  A
N137       C1159   1.461       .  S
C138        C139   1.381       .  A
C138       C1216   1.494       .  S
C139        C140   1.360       .  A
C139        H142   1.083       .  S
C140        C141   1.380       .  A
C140        H143   1.083       .  S
C141       C1166   1.506   1_545  S
Zr144       O145   2.437       .  S
Zr144       O146   2.416       .  S
Zr144       O147   2.385       .  S
Zr144       O150   2.368       .  S
Zr144       O152   2.373       .  S
Zr144       O153   2.375       .  S
Zr144       O154   2.393       .  S
Zr144       O155   2.395       .  S
O145        H201   0.990       .  S
O145        H209   0.990       .  S
O146        C166   1.278       .  A
O147        C168   1.275       .  A
O148       Zr158   2.512       .  S
O148        C167   1.301       .  A
O149       Zr157   2.482       .  S
O149        C168   1.294       .  A
O150        C167   1.273       .  A
O151       Zr159   2.448       .  S
O151        C166   1.288       .  A
O152       Zr157   2.395       .  S
O152       Zr159   2.371       .  S
O153       Zr158   2.393       .  S
O153       Zr159   2.361       .  S
O153        H188   0.965       .  S
O154       Zr157   2.406       .  S
O154       Zr174   2.399       .  S
O154        H191   0.966       .  S
O155       Zr158   2.399       .  S
O155       Zr174   2.400       .  S
Zr156       O181   2.437       .  S
Zr156       O175   2.412       .  S
Zr156       O183   2.378       .  S
Zr156       O171   2.383       .  S
Zr156       O162   2.395       .  S
Zr156       O163   2.393       .  S
Zr156       O164   2.367       .  S
Zr156       O165   2.383       .  S
Zr157       O176   2.437       .  S
Zr157       O169   2.435       .  S
Zr157       O170   2.498       .  S
Zr157       O163   2.399       .  S
Zr157       O164   2.381       .  S
Zr158       O160   2.435       .  S
Zr158       O182   2.434       .  S
Zr158       O184   2.508       .  S
Zr158       O162   2.405       .  S
Zr158       O165   2.393       .  S
Zr159       O185   2.436       .  S
Zr159       O186   2.437       .  S
Zr159       O161   2.436       .  S
Zr159       O162   2.402       .  S
Zr159       O163   2.409       .  S
O160        H197   0.990       .  S
O161        H192   0.990       .  S
O161        H206   0.990       .  S
O163        H189   0.966       .  S
O164       Zr174   2.369       .  S
O165       Zr174   2.372       .  S
O165        H190   0.966       .  S
C166       C1126   1.495       .  S
C167       C1136   1.489       .  S
C168       C1146   1.475       .  S
O169        H205   0.990       .  S
O170        C172   1.297       .  A
O171        C172   1.275       .  A
C172       C1169   1.489       .  S
O173       Zr174   2.436       .  S
O173        H202   0.989       .  S
Zr174       O177   2.435       .  S
Zr174       O178   2.439       .  S
Zr174       O179   2.437       .  S
O175        C180   1.278       .  A
O176        H193   0.990       .  S
O176        H208   0.990       .  S
O177        H194   0.990       .  S
O178        H198   0.991       .  S
O178        H207   0.990       .  S
O179        C180   1.285       .  A
C180       C1439   1.490       .  S
O181        H200   0.990       .  S
O181        H204   0.990       .  S
O182        H196   0.990       .  S
O182        H203   0.990       .  S
O183        C187   1.274       .  A
O184        C187   1.300       .  A
O185        H195   0.990       .  S
O186        H199   0.990       .  S
C187       C1289   1.482       .  S
Zr210       O211   2.438       .  S
Zr210       O212   2.413       .  S
Zr210       O213   2.386       .  S
Zr210       O216   2.397       .  S
Zr210       O218   2.380       .  S
Zr210       O219   2.380       .  S
Zr210       O220   2.397       .  S
Zr210       O221   2.393       .  S
O211        H267   0.991       .  S
O211        H275   0.989       .  S
O212        C232   1.278       .  A
O213        C234   1.277       .  A
O214       Zr224   2.515       .  S
O214        C233   1.301       .  A
O215       Zr223   2.480       .  S
O215        C234   1.295       .  A
O216        C233   1.277       .  A
O217       Zr225   2.442       .  S
O217        C232   1.287       .  A
O218       Zr223   2.390       .  S
O218       Zr225   2.364       .  S
O219       Zr224   2.389       .  S
O219       Zr225   2.357       .  S
O219        H254   0.962       .  S
O220       Zr223   2.406       .  S
O220       Zr240   2.396       .  S
O220        H257   0.967       .  S
O221       Zr224   2.402       .  S
O221       Zr240   2.405       .  S
Zr222       O247   2.438       .  S
Zr222       O241   2.432       .  S
Zr222       O249   2.381       .  S
Zr222       O237   2.379       .  S
Zr222       O228   2.400       .  S
Zr222       O229   2.394       .  S
Zr222       O230   2.373       .  S
Zr222       O231   2.380       .  S
Zr223       O242   2.433       .  S
Zr223       O235   2.435       .  S
Zr223       O236   2.495       .  S
Zr223       O229   2.400       .  S
Zr223       O230   2.382       .  S
Zr224       O226   2.434       .  S
Zr224       O248   2.434       .  S
Zr224       O250   2.495       .  S
Zr224       O228   2.407       .  S
Zr224       O231   2.399       .  S
Zr225       O251   2.435       .  S
Zr225       O252   2.436       .  S
Zr225       O227   2.433       .  S
Zr225       O228   2.406       .  S
Zr225       O229   2.394       .  S
O226        H263   0.990       .  S
O227        H258   0.990       .  S
O227        H272   0.990       .  S
O229        H255   0.966       .  S
O230       Zr240   2.366       .  S
O231       Zr240   2.364       .  S
O231        H256   0.964       .  S
C232       C1269   1.491       .  S
C233       C1466   1.497       .  S
C234       C1239   1.487       .  S
O235        H271   0.990       .  S
O236        C238   1.298       .  A
O237        C238   1.275       .  A
C238       C1099   1.494       .  S
O239       Zr240   2.435       .  S
O239        H268   0.990       .  S
Zr240       O243   2.434       .  S
Zr240       O244   2.437       .  S
Zr240       O245   2.447       .  S
O241        C246   1.282       .  A
O242        H259   0.990       .  S
O242        H274   0.990       .  S
O243        H260   0.990       .  S
O244        H264   0.990       .  S
O244        H273   0.990       .  S
O245        C246   1.288       .  A
C246       C1106   1.494       .  S
O247        H266   0.989       .  S
O247        H270   0.990       .  S
O248        H262   0.990       .  S
O248        H269   0.990       .  S
O249        C253   1.275       .  A
O250        C253   1.297       .  A
O251        H261   0.990       .  S
O252        H265   0.990       .  S
C253       C1116   1.479       .  S
Zr276       O277   2.438       .  S
Zr276       O278   2.401       .  S
Zr276       O279   2.382       .  S
Zr276       O282   2.378       .  S
Zr276       O284   2.378       .  S
Zr276       O285   2.375       .  S
Zr276       O286   2.396       .  S
Zr276       O287   2.385       .  S
O277        H333   0.990       .  S
O277        H341   0.989       .  S
O278        C298   1.277       .  A
O279        C300   1.274       .  A
O280       Zr290   2.466       .  S
O280        C299   1.292       .  A
O281       Zr289   2.473       .  S
O281        C300   1.291       .  A
O282        C299   1.276       .  A
O283       Zr291   2.447       .  S
O283        C298   1.287       .  A
O284       Zr289   2.396       .  S
O284       Zr291   2.378       .  S
O285       Zr290   2.386       .  S
O285       Zr291   2.361       .  S
O285        H320   0.966       .  S
O286       Zr289   2.406       .  S
O286       Zr306   2.392       .  S
O286        H323   0.966       .  S
O287       Zr290   2.398       .  S
O287       Zr306   2.388       .  S
Zr288       O313   2.436       .  S
Zr288       O307   2.416       .  S
Zr288       O315   2.370       .  S
Zr288       O303   2.378       .  S
Zr288       O294   2.389       .  S
Zr288       O295   2.394       .  S
Zr288       O296   2.374       .  S
Zr288       O297   2.377       .  S
Zr289       O308   2.438       .  S
Zr289       O301   2.434       .  S
Zr289       O302   2.490       .  S
Zr289       O295   2.398       .  S
Zr289       O296   2.378       .  S
Zr290       O292   2.434       .  S
Zr290       O314   2.433       .  S
Zr290       O316   2.460       .  S
Zr290       O294   2.405       .  S
Zr290       O297   2.385       .  S
Zr291       O317   2.434       .  S
Zr291       O318   2.435       .  S
Zr291       O293   2.435       .  S
Zr291       O294   2.404       .  S
Zr291       O295   2.404       .  S
O292        H329   0.990       .  S
O293        H324   0.990       .  S
O293        H338   0.990       .  S
O295        H321   0.966       .  S
O296       Zr306   2.369       .  S
O297       Zr306   2.361       .  S
O297        H322   0.965       .  S
C298       C1066   1.476       .  S
C299       C1076   1.477       .  S
C300       C1086   1.473       .  S
O301        H337   0.990       .  S
O302        C304   1.296       .  A
O303        C304   1.273       .  A
C304       C1299   1.481       .  S
O305       Zr306   2.436       .  S
O305        H334   0.990       .  S
Zr306       O309   2.435       .  S
Zr306       O310   2.438       .  S
Zr306       O311   2.423       .  S
O307        C312   1.279       .  A
O308        H325   0.990       .  S
O308        H340   0.990       .  S
O309        H326   0.990       .  S
O310        H330   0.990       .  S
O310        H339   0.989       .  S
O311        C312   1.285       .  A
C312       C1499   1.485       .  S
O313        H332   0.989       .  S
O313        H336   0.990       .  S
O314        H328   0.990       .  S
O314        H335   0.989       .  S
O315        C319   1.275       .  A
O316        C319   1.289       .  A
O317        H327   0.990       .  S
O318        H331   0.989       .  S
C319       C1259   1.468       .  S
N342        C346   1.379   1_554  A
N342        C343   1.383       .  A
N342       C1046   1.482       .  S
C343        C344   1.383       .  A
C343       C1206   1.499       .  S
C344        C345   1.342   1_554  A
C344        H347   1.083       .  S
C345        C346   1.377       .  A
C345        H348   1.084       .  S
C346       C1056   1.483       .  S
Zr349       O350   2.439       .  S
Zr349       O351   2.396       .  S
Zr349       O352   2.359       .  S
Zr349       O355   2.378       .  S
Zr349       O357   2.375       .  S
Zr349       O358   2.373       .  S
Zr349       O359   2.386       .  S
Zr349       O360   2.384       .  S
O350        H406   0.991       .  S
O350        H414   0.990       .  S
O351        C371   1.274       .  A
O352        C373   1.270       .  A
O353       Zr363   2.481       .  S
O353        C372   1.294       .  A
O354       Zr362   2.504       .  S
O354        C373   1.299       .  A
O355        C372   1.274       .  A
O356       Zr364   2.437       .  S
O356        C371   1.285       .  A
O357       Zr362   2.386       .  S
O357       Zr364   2.375       .  S
O358       Zr363   2.377       .  S
O358       Zr364   2.364       .  S
O358        H393   0.964       .  S
O359       Zr362   2.404       .  S
O359       Zr379   2.395       .  S
O359        H396   0.967       .  S
O360       Zr363   2.395       .  S
O360       Zr379   2.394       .  S
Zr361       O386   2.440       .  S
Zr361       O380   2.420       .  S
Zr361       O388   2.382       .  S
Zr361       O376   2.384       .  S
Zr361       O367   2.394       .  S
Zr361       O368   2.392       .  S
Zr361       O369   2.375       .  S
Zr361       O370   2.383       .  S
Zr362       O381   2.434       .  S
Zr362       O374   2.435       .  S
Zr362       O375   2.494       .  S
Zr362       O368   2.400       .  S
Zr362       O369   2.394       .  S
Zr363       O365   2.434       .  S
Zr363       O387   2.435       .  S
Zr363       O389   2.467       .  S
Zr363       O367   2.399       .  S
Zr363       O370   2.397       .  S
Zr364       O390   2.436       .  S
Zr364       O391   2.437       .  S
Zr364       O366   2.435       .  S
Zr364       O367   2.398       .  S
Zr364       O368   2.393       .  S
O365        H402   0.990       .  S
O366        H397   0.990       .  S
O366        H411   0.990       .  S
O368        H394   0.966       .  S
O369       Zr379   2.380       .  S
O370       Zr379   2.365       .  S
O370        H395   0.966       .  S
C371       C1329   1.489       .  S
C372       C1059   1.471       .  S
C373       C1386   1.477       .  S
O374        H410   0.990       .  S
O375        C377   1.296       .  A
O376        C377   1.275       .  A
C377       C1016   1.480       .  S
O378       Zr379   2.436       .  S
O378        H407   0.990       .  S
Zr379       O382   2.433       .  S
Zr379       O383   2.441       .  S
Zr379       O384   2.424       .  S
O380        C385   1.280       .  A
O381        H398   0.990       .  S
O381        H413   0.990       .  S
O382        H399   0.989       .  S
O383        H403   0.990       .  S
O383        H412   0.989       .  S
O384        C385   1.282       .  A
C385       C1026   1.486       .  S
O386        H405   0.990       .  S
O386        H409   0.990       .  S
O387        H401   0.990       .  S
O387        H408   0.990       .  S
O388        C392   1.275       .  A
O389        C392   1.292       .  A
O390        H400   0.990       .  S
O391        H404   0.990       .  S
C392       C1039   1.464       .  S
Zr415       O416   2.443       .  S
Zr415       O417   2.430       .  S
Zr415       O418   2.388       .  S
Zr415       O421   2.373       .  S
Zr415       O423   2.367       .  S
Zr415       O424   2.377       .  S
Zr415       O425   2.400       .  S
Zr415       O426   2.399       .  S
O416        H472   0.991       .  S
O416        H480   0.990       .  S
O417        C437   1.281       .  A
O418        C439   1.273       .  A
O419       Zr429   2.477       .  S
O419        C438   1.292       .  A
O420       Zr428   2.452       .  S
O420        C439   1.287       .  A
O421        C438   1.273       .  A
O422       Zr430   2.422       .  S
O422        C437   1.281       .  A
O423       Zr428   2.394       .  S
O423       Zr430   2.372       .  S
O424       Zr429   2.401       .  S
O424       Zr430   2.388       .  S
O424        H459   0.966       .  S
O425       Zr428   2.404       .  S
O425       Zr445   2.397       .  S
O425        H462   0.966       .  S
O426       Zr429   2.393       .  S
O426       Zr445   2.396       .  S
Zr427       O452   2.440       .  S
Zr427       O446   2.395       .  S
Zr427       O454   2.395       .  S
Zr427       O442   2.393       .  S
Zr427       O433   2.391       .  S
Zr427       O434   2.390       .  S
Zr427       O435   2.376       .  S
Zr427       O436   2.381       .  S
Zr428       O447   2.437       .  S
Zr428       O440   2.433       .  S
Zr428       O441   2.460       .  S
Zr428       O434   2.401       .  S
Zr428       O435   2.387       .  S
Zr429       O431   2.434       .  S
Zr429       O453   2.434       .  S
Zr429       O455   2.472       .  S
Zr429       O433   2.401       .  S
Zr429       O436   2.390       .  S
Zr430       O456   2.434       .  S
Zr430       O457   2.435       .  S
Zr430       O432   2.438       .  S
Zr430       O433   2.402       .  S
Zr430       O434   2.391       .  S
O431        H468   0.990       .  S
O432        H463   0.990       .  S
O432        H477   0.990       .  S
O434        H460   0.966       .  S
O435       Zr445   2.367       .  S
O436       Zr445   2.360       .  S
O436        H461   0.965       .  S
C437       C1319   1.489       .  S
C438       C1359   1.478       .  S
C439       C1449   1.465       .  S
O440        H476   0.990       .  S
O441        C443   1.290       .  A
O442        C443   1.279       .  A
C443        C996   1.474       .  S
O444       Zr445   2.435       .  S
O444        H473   0.990       .  S
Zr445       O448   2.433       .  S
Zr445       O449   2.438       .  S
Zr445       O450   2.442       .  S
O446        C451   1.276       .  A
O447        H464   0.990       .  S
O447        H479   0.990       .  S
O448        H465   0.990       .  S
O449        H469   0.990       .  S
O449        H478   0.990       .  S
O450        C451   1.287       .  A
C451       C1006   1.471       .  S
O452        H471   0.990       .  S
O452        H475   0.990       .  S
O453        H467   0.990       .  S
O453        H474   0.990       .  S
O454        C458   1.278       .  A
O455        C458   1.292       .  A
O456        H466   0.989       .  S
O457        H470   0.990       .  S
C458        C989   1.474       .  S
Zr481       O482   2.439       .  S
Zr481       O483   2.435       .  S
Zr481       O484   2.368       .  S
Zr481       O487   2.371       .  S
Zr481       O489   2.375       .  S
Zr481       O490   2.374       .  S
Zr481       O491   2.394       .  S
Zr481       O492   2.390       .  S
O482        H538   0.990       .  S
O482        H546   0.990       .  S
O483        C503   1.283       .  A
O484        C505   1.272       .  A
O485       Zr495   2.485       .  S
O485        C504   1.295       .  A
O486       Zr494   2.532       .  S
O486        C505   1.305       .  A
O487        C504   1.274       .  A
O488       Zr496   2.451       .  S
O488        C503   1.287       .  A
O489       Zr494   2.394       .  S
O489       Zr496   2.373       .  S
O490       Zr495   2.394       .  S
O490       Zr496   2.365       .  S
O490        H525   0.964       .  S
O491       Zr494   2.397       .  S
O491       Zr511   2.397       .  S
O491        H528   0.967       .  S
O492       Zr495   2.406       .  S
O492       Zr511   2.398       .  S
Zr493       O518   2.440       .  S
Zr493       O512   2.426       .  S
Zr493       O520   2.384       .  S
Zr493       O508   2.358       .  S
Zr493       O499   2.385       .  S
Zr493       O500   2.398       .  S
Zr493       O501   2.380       .  S
Zr493       O502   2.369       .  S
Zr494       O513   2.435       .  S
Zr494       O506   2.434       .  S
Zr494       O507   2.525       .  S
Zr494       O500   2.405       .  S
Zr494       O501   2.393       .  S
Zr495       O497   2.434       .  S
Zr495       O519   2.435       .  S
Zr495       O521   2.509       .  S
Zr495       O499   2.402       .  S
Zr495       O502   2.385       .  S
Zr496       O522   2.435       .  S
Zr496       O523   2.439       .  S
Zr496       O498   2.438       .  S
Zr496       O499   2.408       .  S
Zr496       O500   2.398       .  S
O497        H534   0.990       .  S
O498        H529   0.990       .  S
O498        H543   0.990       .  S
O500        H526   0.966       .  S
O501       Zr511   2.371       .  S
O502       Zr511   2.370       .  S
O502        H527   0.965       .  S
C503       C1419   1.516       .  S
C504       C1379   1.472       .  S
C505       C1476   1.494       .  S
O506        H542   0.990       .  S
O507        C509   1.304       .  A
O508        C509   1.270       .  A
C509        C966   1.489       .  S
O510       Zr511   2.435       .  S
O510        H539   0.990       .  S
Zr511       O514   2.436       .  S
Zr511       O515   2.438       .  S
Zr511       O516   2.429       .  S
O512        C517   1.281       .  A
O513        H530   0.990       .  S
O513        H545   0.990       .  S
O514        H531   0.990       .  S
O515        H535   0.990       .  S
O515        H544   0.990       .  S
O516        C517   1.282       .  A
C517        C976   1.498       .  S
O518        H537   0.990       .  S
O518        H541   0.990       .  S
O519        H533   0.990       .  S
O519        H540   0.990       .  S
O520        C524   1.275       .  A
O521        C524   1.299       .  A
O522        H532   0.990       .  S
O523        H536   0.990       .  S
C524        C956   1.487       .  S
Zr547       O548   2.437       .  S
Zr547       O549   2.392       .  S
Zr547       O550   2.374       .  S
Zr547       O553   2.376       .  S
Zr547       O555   2.363       .  S
Zr547       O556   2.380       .  S
Zr547       O557   2.380       .  S
Zr547       O558   2.384       .  S
O548        H604   0.990       .  S
O548        H612   0.989       .  S
O549        C569   1.272       .  A
O550        C571   1.273       .  A
O551       Zr561   2.489       .  S
O551        C570   1.295       .  A
O552       Zr560   2.475       .  S
O552        C571   1.292       .  A
O553        C570   1.275       .  A
O554       Zr562   2.470       .  S
O554        C569   1.291       .  A
O555       Zr560   2.389       .  S
O555       Zr562   2.365       .  S
O556       Zr561   2.388       .  S
O556       Zr562   2.369       .  S
O556        H591   0.955       .  S
O557       Zr560   2.403       .  S
O557       Zr577   2.395       .  S
O557        H594   0.965       .  S
O558       Zr561   2.400       .  S
O558       Zr577   2.385       .  S
Zr559       O584   2.440       .  S
Zr559       O578   2.450       .  S
Zr559       O586   2.379       .  S
Zr559       O574   2.400       .  S
Zr559       O565   2.412       .  S
Zr559       O566   2.400       .  S
Zr559       O567   2.370       .  S
Zr559       O568   2.376       .  S
Zr560       O579   2.437       .  S
Zr560       O572   2.434       .  S
Zr560       O573   2.473       .  S
Zr560       O566   2.401       .  S
Zr560       O567   2.401       .  S
Zr561       O563   2.433       .  S
Zr561       O585   2.436       .  S
Zr561       O587   2.482       .  S
Zr561       O565   2.407       .  S
Zr561       O568   2.396       .  S
Zr562       O588   2.436       .  S
Zr562       O589   2.436       .  S
Zr562       O564   2.437       .  S
Zr562       O565   2.414       .  S
Zr562       O566   2.415       .  S
O563        H600   0.990       .  S
O564        H595   0.990       .  S
O564        H609   0.990       .  S
O566        H592   0.966       .  S
O567       Zr577   2.383       .  S
O568       Zr577   2.376       .  S
O568        H593   0.966       .  S
C569       C1349   1.496       .  S
C570       C1406   1.480       .  S
C571       C1506   1.473       .  S
O572        H608   0.990       .  S
O573        C575   1.292       .  A
O574        C575   1.278       .  A
C575        C936   1.493       .  S
O576       Zr577   2.437       .  S
O576        H605   0.990       .  S
Zr577       O580   2.433       .  S
Zr577       O581   2.440       .  S
Zr577       O582   2.410       .  S
O578        C583   1.286       .  A
O579        H596   0.990       .  S
O579        H611   0.990       .  S
O580        H597   0.990       .  S
O581        H601   0.990       .  S
O581        H610   0.990       .  S
O582        C583   1.280       .  A
C583        C946   1.481       .  S
O584        H603   0.990       .  S
O584        H607   0.989       .  S
O585        H599   0.990       .  S
O585        H606   0.990       .  S
O586        C590   1.274       .  A
O587        C590   1.293       .  A
O588        H598   0.990       .  S
O589        H602   0.990       .  S
C590        C926   1.480       .  S
N613        C617   1.371       .  A
N613        C614   1.361       .  A
N613        C916   1.466       .  S
C614        C615   1.379       .  A
C614        C949   1.488       .  S
C615        C616   1.366       .  A
C615        H618   1.082       .  S
C616        C617   1.387       .  A
C616        H619   1.083       .  S
C617        C999   1.511       .  S
N620        C624   1.369       .  A
N620        C621   1.369       .  A
N620        C906   1.452       .  S
C621        C622   1.386       .  A
C621       C1029   1.496       .  S
C622        C623   1.351       .  A
C622        H625   1.083       .  S
C623        C624   1.379       .  A
C623        H626   1.083       .  S
C624       C1009   1.478       .  S
N627        C631   1.377       .  A
N627        C628   1.388       .  A
N627        C896   1.490       .  S
C628        C629   1.387       .  A
C628        C969   1.517       .  S
C629        C630   1.345       .  A
C629        H632   1.081       .  S
C630        C631   1.374       .  A
C630        H633   1.084       .  S
C631       C1036   1.486       .  S
N634        C638   1.381       .  A
N634        C635   1.363       .  A
N634        C886   1.469       .  S
C635        C636   1.378       .  A
C635        C979   1.483       .  S
C636        C637   1.363       .  A
C636        H639   1.082       .  S
C637        C638   1.385       .  A
C637        H640   1.082       .  S
C638        C939   1.511       .  S
N641        C645   1.378       .  A
N641        C642   1.381       .  A
N641        C876   1.481       .  S
C642        C643   1.384       .  A
C642       C1119   1.504       .  S
C643        C644   1.352       .  A
C643        H646   1.083       .  S
C644        C645   1.378       .  A
C644        H647   1.083       .  S
C645       C1189   1.494       .  S
N648        C652   1.384       .  A
N648        C649   1.375       .  A
N648        C869   1.474       .  S
C649        C650   1.379       .  A
C649       C1109   1.482       .  S
C650        C651   1.347       .  A
C650        H653   1.083       .  S
C651        C652   1.380       .  A
C651        H654   1.083       .  S
C652       C1089   1.491       .  S
N655        C659   1.380       .  A
N655        C656   1.377       .  A
N655        C859   1.483       .  S
C656        C657   1.386       .  A
C656       C1079   1.513       .  S
C657        C658   1.350       .  A
C657        H660   1.080       .  S
C658        C659   1.377       .  A
C658        H661   1.084       .  S
C659       C1149   1.499       .  S
N662        C666   1.379       .  A
N662        C663   1.374       .  A
N662        C849   1.462       .  S
C663        C664   1.382       .  A
C663       C1199   1.499       .  S
C664        C665   1.363       .  A
C664        H667   1.083       .  S
C665        C666   1.381       .  A
C665        H668   1.083       .  S
C666       C1139   1.501       .  S
N669        C673   1.371       .  A
N669        C670   1.361       .  A
N669        C836   1.453       .  S
C670        C671   1.384       .  A
C670       C1069   1.483       .  S
C671        C672   1.362       .  A
C671        H674   1.082       .  S
C672        C673   1.380       .  A
C672        H675   1.082       .  S
C673        C929   1.486       .  S
N676        C680   1.381       .  A
N676        C677   1.382       .  A
N676        C826   1.496       .  S
C677        C678   1.387       .  A
C677       C1096   1.522       .  S
C678        C679   1.346       .  A
C678        H681   1.079       .  S
C679        C680   1.374       .  A
C679        H682   1.084       .  S
C680        C959   1.502       .  S
N683        C687   1.382       .  A
N683        C684   1.372       .  A
N683        C819   1.464       .  S
C684        C685   1.380       .  A
C684       C1129   1.490       .  S
C685        C686   1.357       .  A
C685        H688   1.083       .  S
C686        C687   1.379       .  A
C686        H689   1.083       .  S
C687        C986   1.494       .  S
N690        C694   1.374       .  A
N690        C691   1.379       .  A
N690        C809   1.475       .  S
C691        C692   1.387       .  A
C691       C1176   1.501       .  S
C692        C693   1.342       .  A
C692        H695   1.082       .  S
C693        C694   1.376       .  A
C693        H696   1.084       .  S
C694       C1019   1.482       .  S
O697       Zr733   2.472   1_565  S
O697        C708   1.297       .  A
O698       Zr732   2.457   1_565  S
O698        C709   1.294   1_554  A
O699       Zr705   2.498       .  S
O699        C710   1.302       .  A
O700       Zr705   2.451   1_554  S
O700        C711   1.295       .  A
O701       Zr735   2.510   1_565  S
O701        C711   1.305       .  A
O702       Zr734   2.429   1_565  S
O702        C710   1.286       .  A
O703       Zr705   2.446   1_455  S
O703        C709   1.291       .  A
O704       Zr705   2.445       .  S
O704        C708   1.293       .  A
Zr705       O706   2.358   1_656  S
Zr705       O707   2.338       .  S
Zr705       O715   2.368   1_556  S
Zr705       O713   2.325   1_655  S
O706       Zr732   2.331   1_565  S
O706       Zr735   2.338   1_465  S
O707       Zr733   2.361   1_565  S
O707       Zr734   2.346   1_565  S
C708       C1516   1.519       .  S
C709       C1456   1.514       .  S
C710       C1369   1.528   1_655  S
C711       C1309   1.522       .  S
H712        O713   0.964       .  S
O713       Zr732   2.340   1_566  S
O713       Zr734   2.326   1_465  S
H714        O715   0.966       .  S
O715       Zr733   2.351   1_564  S
O715       Zr735   2.357   1_565  S
O716       Zr732   2.448       .  S
O716        C739   1.293       .  A
O717       Zr733   2.472   1_554  S
O717        C740   1.298       .  A
O718       Zr734   2.519   1_455  S
O718        C741   1.306       .  A
O719       Zr735   2.460   1_455  S
O719        C742   1.293       .  A
O720       Zr735   2.441       .  S
O720        C743   1.290       .  A
O721       Zr734   2.484       .  S
O721        C744   1.303       .  A
O722       Zr736   2.546   1_556  S
O722        C745   1.314       .  A
O723       Zr736   2.488       .  S
O723        C746   1.303       .  A
O724       Zr734   2.412       .  S
O724        C745   1.286       .  A
O725       Zr735   2.471       .  S
O725        C746   1.300       .  A
O726       Zr732   2.390   1_556  S
O726        C741   1.281       .  A
O727       Zr733   2.437       .  S
O727        C744   1.290       .  A
O728       Zr733   2.480   1_554  S
O728        C743   1.300       .  A
O729       Zr732   2.443       .  S
O729        C742   1.291       .  A
O730       Zr736   2.518   1_455  S
O730        C739   1.307       .  A
O731       Zr736   2.543       .  S
O731        C740   1.312       .  A
Zr732       O738   2.355   1_554  S
Zr732       O750   2.329       .  S
Zr733       O737   2.342   1_556  S
Zr733       O748   2.369       .  S
Zr734       O738   2.347   1_655  S
Zr734       O748   2.370       .  S
Zr735       O737   2.374       .  S
Zr735       O750   2.367   1_655  S
Zr736       O737   2.381       .  S
Zr736       O738   2.359   1_654  S
Zr736       O750   2.394   1_655  S
Zr736       O748   2.358   1_554  S
C739       C1049   1.534       .  S
C740       C1489   1.553       .  S
C741       C1336   1.508       .  S
C742       C1156   1.517       .  S
C743       C1279   1.515       .  S
C744       C1429   1.499       .  S
C745       C1399   1.510       .  S
C746       C1226   1.501       .  S
H747        O748   0.966       .  S
H749        O750   0.965       .  S
O751       Zr787   2.426       .  S
O751        C762   1.289       .  A
O752       Zr786   2.563       .  S
O752        C763   1.316       .  A
O753       Zr759   2.443       .  S
O753        C764   1.291       .  A
O754       Zr759   2.434       .  S
O754        C765   1.286       .  A
O755       Zr789   2.516       .  S
O755        C765   1.304       .  A
O756       Zr788   2.435       .  S
O756        C764   1.290       .  A
O757       Zr759   2.432       .  S
O757        C763   1.292       .  A
O758       Zr759   2.479       .  S
O758        C762   1.299       .  A
Zr759       O760   2.361       .  S
Zr759       O761   2.327       .  S
Zr759       O769   2.337       .  S
Zr759       O767   2.357       .  S
O760       Zr786   2.370       .  S
O760       Zr789   2.355       .  S
O761       Zr787   2.339       .  S
O761       Zr788   2.341       .  S
C762        C919   1.489       .  S
C763        C899   1.532       .  S
C764        C909   1.498       .  S
C765        C889   1.546       .  S
H766        O767   0.966       .  S
O767       Zr786   2.368       .  S
O767       Zr788   2.353       .  S
H768        O769   0.965       .  S
O769       Zr787   2.338       .  S
O769       Zr789   2.343       .  S
O770       Zr786   2.528       .  S
O770        C793   1.310       .  A
O771       Zr787   2.425       .  S
O771        C794   1.290       .  A
O772       Zr788   2.442       .  S
O772        C795   1.292       .  A
O773       Zr789   2.459       .  S
O773        C796   1.296       .  A
O774       Zr789   2.447       .  S
O774        C797   1.292       .  A
O775       Zr788   2.440       .  S
O775        C798   1.290       .  A
O776       Zr790   2.497       .  S
O776        C799   1.302       .  A
O777       Zr790   2.477       .  S
O777        C800   1.300       .  A
O778       Zr788   2.453       .  S
O778        C799   1.293       .  A
O779       Zr789   2.476       .  S
O779        C800   1.297       .  A
O780       Zr786   2.495       .  S
O780        C795   1.302       .  A
O781       Zr787   2.457       .  S
O781        C798   1.293       .  A
O782       Zr787   2.470       .  S
O782        C797   1.297       .  A
O783       Zr786   2.505       .  S
O783        C796   1.305       .  A
O784       Zr790   2.456       .  S
O784        C793   1.296       .  A
O785       Zr790   2.525       .  S
O785        C794   1.308       .  A
Zr786       O792   2.379       .  S
Zr786       O804   2.379       .  S
Zr787       O791   2.343       .  S
Zr787       O802   2.349       .  S
Zr788       O792   2.340       .  S
Zr788       O802   2.350       .  S
Zr789       O791   2.365       .  S
Zr789       O804   2.369       .  S
Zr790       O791   2.352       .  S
Zr790       O792   2.362       .  S
Zr790       O804   2.389       .  S
Zr790       O802   2.337       .  S
C793        C879   1.537       .  S
C794        C856   1.514       .  S
C795        C806   1.523       .  S
C796        C829   1.513       .  S
C797        C839   1.516       .  S
C798        C816   1.514       .  S
C799        C846   1.529       .  S
C800        C866   1.531       .  S
H801        O802   0.966       .  S
H803        O804   0.966       .  S
C805        C806   1.419       .  A
C805        C810   1.425       .  A
C805       Br812   1.930       .  S
C806        C807   1.421       .  A
C807        C808   1.416       .  A
C807       Br814   1.939       .  S
C808        C809   1.421       .  A
C808       Br813   1.929       .  S
C809        C810   1.422       .  A
C810       Br811   1.922       .  S
C815        C816   1.424       .  A
C815        C820   1.418       .  A
C815       Br822   1.936       .  S
C816        C817   1.422       .  A
C817        C818   1.414       .  A
C817       Br824   1.945       .  S
C818        C819   1.414       .  A
C818       Br823   1.909       .  S
C819        C820   1.413       .  A
C820       Br821   1.918       .  S
C825        C826   1.442       .  A
C825        C830   1.423       .  A
C825       Br832   1.926       .  S
C826        C827   1.434       .  A
C827        C828   1.428       .  A
C827       Br834   1.922       .  S
C828        C829   1.407       .  A
C828       Br833   1.927       .  S
C829        C830   1.404       .  A
C830       Br831   1.935       .  S
C835        C836   1.411       .  A
C835        C840   1.412       .  A
C835       Br842   1.936       .  S
C836        C837   1.407       .  A
C837        C838   1.419       .  A
C837       Br844   1.917       .  S
C838        C839   1.422       .  A
C838       Br843   1.931       .  S
C839        C840   1.424       .  A
C840       Br841   1.929       .  S
C845        C846   1.423       .  A
C845        C850   1.420       .  A
C845       Br852   1.934       .  S
C846        C847   1.430       .  A
C847        C848   1.424       .  A
C847       Br854   1.933       .  S
C848        C849   1.406       .  A
C848       Br853   1.921       .  S
C849        C850   1.414       .  A
C850       Br851   1.925       .  S
C855        C856   1.412       .  A
C855        C860   1.428       .  A
C855       Br862   1.928       .  S
C856        C857   1.411       .  A
C857        C858   1.418       .  A
C857       Br864   1.936       .  S
C858        C859   1.430       .  A
C858       Br863   1.926       .  S
C859        C860   1.428       .  A
C860       Br861   1.925       .  S
C865        C866   1.420       .  A
C865        C870   1.416       .  A
C865       Br872   1.937       .  S
C866        C867   1.429       .  A
C867        C868   1.426       .  A
C867       Br874   1.937       .  S
C868        C869   1.419       .  A
C868       Br873   1.922       .  S
C869        C870   1.415       .  A
C870       Br871   1.915       .  S
C875        C876   1.419       .  A
C875        C880   1.416       .  A
C875       Br882   1.928       .  S
C876        C877   1.422       .  A
C877        C878   1.436       .  A
C877       Br884   1.925       .  S
C878        C879   1.426       .  A
C878       Br883   1.929       .  S
C879        C880   1.423       .  A
C880       Br881   1.937       .  S
C885        C886   1.409       .  A
C885        C890   1.429       .  A
C885       Br892   1.923       .  S
C886        C887   1.418       .  A
C887        C888   1.419       .  A
C887       Br894   1.940       .  S
C888        C889   1.441       .  A
C888       Br893   1.951       .  S
C889        C890   1.431       .  A
C890       Br891   1.931       .  S
C895        C896   1.417       .  A
C895        C900   1.414       .  A
C895       Br902   1.916       .  S
C896        C897   1.433       .  A
C897        C898   1.441       .  A
C897       Br904   1.922       .  S
C898        C899   1.419       .  A
C898       Br903   1.917       .  S
C899        C900   1.407       .  A
C900       Br901   1.915       .  S
C905        C906   1.411       .  A
C905        C910   1.407       .  A
C905       Br912   1.925       .  S
C906        C907   1.414       .  A
C907        C908   1.411       .  A
C907       Br914   1.926       .  S
C908        C909   1.421       .  A
C908       Br913   1.937       .  S
C909        C910   1.419       .  A
C910       Br911   1.938       .  S
C915        C916   1.417       .  A
C915        C920   1.411       .  A
C915       Br922   1.913       .  S
C916        C917   1.434       .  A
C917        C918   1.414       .  A
C917       Br924   1.934       .  S
C918        C919   1.407       .  A
C918       Br923   1.932       .  S
C919        C920   1.404       .  A
C920       Br921   1.925       .  S
C925        C926   1.406       .  A
C925        C930   1.415       .  A
C925       Br932   1.929       .  S
C926        C927   1.408       .  A
C927        C928   1.403       .  A
C927       Br934   1.931       .  S
C928        C929   1.408       .  A
C928       Br933   1.921       .  S
C929        C930   1.422       .  A
C930       Br931   1.928       .  S
C935        C936   1.414       .  A
C935        C940   1.409       .  A
C935       Br942   1.926       .  S
C936        C937   1.406       .  A
C937        C938   1.415       .  A
C937       Br944   1.935       .  S
C938        C939   1.436       .  A
C938       Br943   1.938       .  S
C939        C940   1.410       .  A
C940       Br941   1.918       .  S
C945        C946   1.408       .  A
C945        C950   1.402       .  A
C945       Br952   1.938       .  S
C946        C947   1.411       .  A
C947        C948   1.414       .  A
C947       Br954   1.925       .  S
C948        C949   1.412       .  A
C948       Br953   1.928       .  S
C949        C950   1.417       .  A
C950       Br951   1.931       .  S
C955        C956   1.403       .  A
C955        C960   1.417       .  A
C955       Br962   1.929       .  S
C956        C957   1.409       .  A
C957        C958   1.407       .  A
C957       Br964   1.911       .  S
C958        C959   1.407       .  A
C958       Br963   1.932       .  S
C959        C960   1.428       .  A
C960       Br961   1.918       .  S
C965        C966   1.418       .  A
C965        C970   1.420       .  A
C965       Br972   1.932       .  S
C966        C967   1.406       .  A
C967        C968   1.411       .  A
C967       Br974   1.934       .  S
C968        C969   1.427       .  A
C968       Br973   1.936       .  S
C969        C970   1.417       .  A
C970       Br971   1.926       .  S
C975        C976   1.421       .  A
C975        C980   1.407       .  A
C975       Br982   1.936       .  S
C976        C977   1.421       .  A
C977        C978   1.406       .  A
C977       Br984   1.932       .  S
C978        C979   1.404       .  A
C978       Br983   1.923       .  S
C979        C980   1.399       .  A
C980       Br981   1.899       .  S
C985        C986   1.425       .  A
C985        C990   1.408       .  A
C985       Br992   1.930       .  S
C986        C987   1.419       .  A
C987        C988   1.413       .  A
C987       Br994   1.921       .  S
C988        C989   1.405       .  A
C988       Br993   1.934       .  S
C989        C990   1.401       .  A
C990       Br991   1.933       .  S
C995        C996   1.395       .  A
C995       C1000   1.408       .  A
C995      Br1002   1.930       .  S
C996        C997   1.404       .  A
C997        C998   1.410       .  A
C997      Br1004   1.921       .  S
C998        C999   1.419       .  A
C998      Br1003   1.920       .  S
C999       C1000   1.437       .  A
C1000     Br1001   1.941       .  S
C1005      C1006   1.404       .  A
C1005      C1010   1.395       .  A
C1005     Br1012   1.936       .  S
C1006      C1007   1.414       .  A
C1007      C1008   1.410       .  A
C1007     Br1014   1.922       .  S
C1008      C1009   1.408       .  A
C1008     Br1013   1.927       .  S
C1009      C1010   1.417       .  A
C1010     Br1011   1.939       .  S
C1015      C1016   1.404       .  A
C1015      C1020   1.417       .  A
C1015     Br1022   1.925       .  S
C1016      C1017   1.399       .  A
C1017      C1018   1.401       .  A
C1017     Br1024   1.900       .  S
C1018      C1019   1.406       .  A
C1018     Br1023   1.933       .  S
C1019      C1020   1.427       .  A
C1020     Br1021   1.930       .  S
C1025      C1026   1.418       .  A
C1025      C1030   1.412       .  A
C1025     Br1032   1.934       .  S
C1026      C1027   1.415       .  A
C1027      C1028   1.395       .  A
C1027     Br1034   1.935       .  S
C1028      C1029   1.410       .  A
C1028     Br1033   1.936       .  S
C1029      C1030   1.418       .  A
C1030     Br1031   1.916       .  S
C1035      C1036   1.412       .  A
C1035      C1040   1.407       .  A
C1035     Br1042   1.930       .  S
C1036      C1037   1.424       .  A
C1037      C1038   1.405       .  A
C1037     Br1044   1.923       .  S
C1038      C1039   1.399       .  A
C1038     Br1043   1.932       .  S
C1039      C1040   1.406       .  A
C1040     Br1041   1.931       .  S
C1045      C1046   1.426   1_556  A
C1045      C1050   1.434       .  A
C1045     Br1052   1.921       .  S
C1046      C1047   1.417       .  A
C1047      C1048   1.417       .  A
C1047     Br1054   1.925       .  S
C1048      C1049   1.422       .  A
C1048     Br1053   1.937       .  S
C1049      C1050   1.422   1_554  A
C1050     Br1051   1.930       .  S
C1055      C1056   1.424       .  A
C1055      C1060   1.410       .  A
C1055     Br1062   1.928       .  S
C1056      C1057   1.413       .  A
C1057      C1058   1.406       .  A
C1057     Br1064   1.932       .  S
C1058      C1059   1.407       .  A
C1058     Br1063   1.929       .  S
C1059      C1060   1.402       .  A
C1060     Br1061   1.931       .  S
C1065      C1066   1.414       .  A
C1065      C1070   1.405       .  A
C1065     Br1072   1.923       .  S
C1066      C1067   1.412       .  A
C1067      C1068   1.406       .  A
C1067     Br1074   1.921       .  S
C1068      C1069   1.402       .  A
C1068     Br1073   1.915       .  S
C1069      C1070   1.404       .  A
C1070     Br1071   1.916       .  S
C1075      C1076   1.404       .  A
C1075      C1080   1.404       .  A
C1075     Br1082   1.931       .  S
C1076      C1077   1.409       .  A
C1077      C1078   1.412       .  A
C1077     Br1084   1.937       .  S
C1078      C1079   1.423       .  A
C1078     Br1083   1.918       .  S
C1079      C1080   1.425       .  A
C1080     Br1081   1.938       .  S
C1085      C1086   1.404       .  A
C1085      C1090   1.404       .  A
C1085     Br1092   1.936       .  S
C1086      C1087   1.406       .  A
C1087      C1088   1.415       .  A
C1087     Br1094   1.931       .  S
C1088      C1089   1.418       .  A
C1088     Br1093   1.921       .  S
C1089      C1090   1.425       .  A
C1090     Br1091   1.938       .  S
C1095      C1096   1.420       .  A
C1095      C1100   1.418       .  A
C1095     Br1102   1.929       .  S
C1096      C1097   1.428       .  A
C1097      C1098   1.406       .  A
C1097     Br1104   1.940       .  S
C1098      C1099   1.403       .  A
C1098     Br1103   1.929       .  S
C1099      C1100   1.418       .  A
C1100     Br1101   1.934       .  S
C1105      C1106   1.411       .  A
C1105      C1110   1.404       .  A
C1105     Br1112   1.927       .  S
C1106      C1107   1.416       .  A
C1107      C1108   1.414       .  A
C1107     Br1114   1.923       .  S
C1108      C1109   1.406       .  A
C1108     Br1113   1.922       .  S
C1109      C1110   1.416       .  A
C1110     Br1111   1.938       .  S
C1115      C1116   1.411       .  A
C1115      C1120   1.413       .  A
C1115     Br1122   1.932       .  S
C1116      C1117   1.407       .  A
C1117      C1118   1.409       .  A
C1117     Br1124   1.932       .  S
C1118      C1119   1.419       .  A
C1118     Br1123   1.928       .  S
C1119      C1120   1.414       .  A
C1120     Br1121   1.915       .  S
C1125      C1126   1.417       .  A
C1125      C1130   1.412       .  A
C1125     Br1132   1.934       .  S
C1126      C1127   1.408       .  A
C1127      C1128   1.406       .  A
C1127     Br1134   1.929       .  S
C1128      C1129   1.417       .  A
C1128     Br1133   1.929       .  S
C1129      C1130   1.410       .  A
C1130     Br1131   1.914       .  S
C1135      C1136   1.414       .  A
C1135      C1140   1.414       .  A
C1135     Br1142   1.933       .  S
C1136      C1137   1.407       .  A
C1137      C1138   1.413       .  A
C1137     Br1144   1.931       .  S
C1138      C1139   1.419       .  A
C1138     Br1143   1.917       .  S
C1139      C1140   1.414       .  A
C1140     Br1141   1.922       .  S
C1145      C1146   1.403       .  A
C1145      C1150   1.406       .  A
C1145     Br1152   1.935       .  S
C1146      C1147   1.408       .  A
C1147      C1148   1.414       .  A
C1147     Br1154   1.928       .  S
C1148      C1149   1.415       .  A
C1148     Br1153   1.921       .  S
C1149      C1150   1.423       .  A
C1150     Br1151   1.925       .  S
C1155      C1156   1.423       .  A
C1155      C1160   1.414       .  A
C1155     Br1162   1.933   1_545  S
C1156      C1157   1.422       .  A
C1157      C1158   1.419       .  A
C1157     Br1164   1.939       .  S
C1158      C1159   1.418       .  A
C1158     Br1163   1.921       .  S
C1159      C1160   1.410       .  A
C1160     Br1161   1.920       .  S
C1165      C1166   1.420       .  A
C1165      C1170   1.416       .  A
C1165     Br1172   1.913       .  S
C1166      C1167   1.423       .  A
C1167      C1168   1.413       .  A
C1167     Br1174   1.926       .  S
C1168      C1169   1.408       .  A
C1168     Br1173   1.933       .  S
C1169      C1170   1.406       .  A
C1170     Br1171   1.930       .  S
C1175      C1176   1.413       .  A
C1175      C1180   1.406       .  A
C1175     Br1182   1.933       .  S
C1176      C1177   1.406       .  A
C1177      C1178   1.412       .  A
C1177     Br1184   1.916       .  S
C1178      C1179   1.421       .  A
C1178     Br1183   1.933       .  S
C1179      C1180   1.417       .  A
C1180     Br1181   1.932       .  S
C1185      C1186   1.410       .  A
C1185      C1190   1.412       .  A
C1185     Br1192   1.929       .  S
C1186      C1187   1.406       .  A
C1187      C1188   1.412       .  A
C1187     Br1194   1.931       .  S
C1188      C1189   1.421       .  A
C1188     Br1193   1.925       .  S
C1189      C1190   1.407       .  A
C1190     Br1191   1.915       .  S
C1195      C1196   1.424       .  A
C1195      C1200   1.418       .  A
C1195     Br1202   1.932       .  S
C1196      C1197   1.416       .  A
C1197      C1198   1.409       .  A
C1197     Br1204   1.930       .  S
C1198      C1199   1.406       .  A
C1198     Br1203   1.913       .  S
C1199      C1200   1.407       .  A
C1200     Br1201   1.916       .  S
C1205      C1206   1.412       .  A
C1205      C1210   1.414       .  A
C1205     Br1212   1.918       .  S
C1206      C1207   1.420       .  A
C1207      C1208   1.405       .  A
C1207     Br1214   1.932       .  S
C1208      C1209   1.407       .  A
C1208     Br1213   1.932       .  S
C1209      C1210   1.416       .  A
C1210     Br1211   1.933       .  S
C1215      C1216   1.408       .  A
C1215      C1220   1.416       .  A
C1215     Br1222   1.913       .  S
C1216      C1217   1.410       .  A
C1217      C1218   1.405       .  A
C1217     Br1224   1.924       .  S
C1218      C1219   1.416       .  A
C1218     Br1223   1.931       .  S
C1219      C1220   1.420       .  A
C1220     Br1221   1.931       .  S
C1225      C1226   1.405   1_455  A
C1225      C1230   1.423       .  A
C1225     Br1232   1.929       .  S
C1226      C1227   1.399       .  A
C1227      C1228   1.422       .  A
C1227     Br1234   1.940       .  S
C1228      C1229   1.447       .  A
C1228     Br1233   1.924       .  S
C1229      C1230   1.432   1_655  A
C1230     Br1231   1.922       .  S
C1235      C1236   1.427       .  A
C1235      C1240   1.408       .  A
C1235     Br1242   1.942       .  S
C1236      C1237   1.421       .  A
C1237      C1238   1.414       .  A
C1237     Br1244   1.931       .  S
C1238      C1239   1.414       .  A
C1238     Br1243   1.934       .  S
C1239      C1240   1.406       .  A
C1240     Br1241   1.932       .  S
C1245      C1246   1.424       .  A
C1245      C1250   1.412       .  A
C1245     Br1252   1.920   1_455  S
C1246      C1247   1.412       .  A
C1247      C1248   1.411       .  A
C1247     Br1254   1.920       .  S
C1248      C1249   1.408       .  A
C1248     Br1253   1.929       .  S
C1249      C1250   1.402       .  A
C1250     Br1251   1.932       .  S
C1255      C1256   1.425       .  A
C1255      C1260   1.409       .  A
C1255     Br1262   1.932       .  S
C1256      C1257   1.415       .  A
C1257      C1258   1.402       .  A
C1257     Br1264   1.911       .  S
C1258      C1259   1.404       .  A
C1258     Br1263   1.937       .  S
C1259      C1260   1.405       .  A
C1260     Br1261   1.933       .  S
C1265      C1266   1.413       .  A
C1265      C1270   1.399       .  A
C1265     Br1272   1.930       .  S
C1266      C1267   1.402       .  A
C1267      C1268   1.411       .  A
C1267     Br1274   1.923       .  S
C1268      C1269   1.422       .  A
C1268     Br1273   1.929       .  S
C1269      C1270   1.410       .  A
C1270     Br1271   1.930       .  S
C1275      C1276   1.426       .  A
C1275      C1280   1.423       .  A
C1275     Br1282   1.928       .  S
C1276      C1277   1.417       .  A
C1277      C1278   1.406       .  A
C1277     Br1284   1.923       .  S
C1278      C1279   1.406       .  A
C1278     Br1283   1.919   1_545  S
C1279      C1280   1.421       .  A
C1280     Br1281   1.936       .  S
C1285      C1286   1.412       .  A
C1285      C1290   1.417       .  A
C1285     Br1292   1.927       .  S
C1286      C1287   1.420       .  A
C1287      C1288   1.408       .  A
C1287     Br1294   1.929   1_455  S
C1288      C1289   1.406       .  A
C1288     Br1293   1.933       .  S
C1289      C1290   1.412       .  A
C1290     Br1291   1.926       .  S
C1295      C1296   1.426       .  A
C1295      C1300   1.408       .  A
C1295     Br1302   1.932       .  S
C1296      C1297   1.417       .  A
C1297      C1298   1.416       .  A
C1297     Br1304   1.918       .  S
C1298      C1299   1.411       .  A
C1298     Br1303   1.933       .  S
C1299      C1300   1.405       .  A
C1300     Br1301   1.935       .  S
C1305      C1306   1.417       .  A
C1305      C1310   1.412       .  A
C1305     Br1312   1.925       .  S
C1306      C1307   1.425       .  A
C1307      C1308   1.434       .  A
C1307     Br1314   1.924   1_655  S
C1308      C1309   1.419       .  A
C1308     Br1313   1.928   1_655  S
C1309      C1310   1.414       .  A
C1310     Br1311   1.926       .  S
C1315      C1316   1.423       .  A
C1315      C1320   1.404       .  A
C1315     Br1322   1.940   1_565  S
C1316      C1317   1.408       .  A
C1317      C1318   1.411       .  A
C1317     Br1324   1.926       .  S
C1318      C1319   1.417       .  A
C1318     Br1323   1.929       .  S
C1319      C1320   1.412       .  A
C1320     Br1321   1.937       .  S
C1325      C1326   1.405       .  A
C1325      C1330   1.402       .  A
C1325     Br1332   1.920       .  S
C1326      C1327   1.402       .  A
C1327      C1328   1.406       .  A
C1327     Br1334   1.920       .  S
C1328      C1329   1.425       .  A
C1328     Br1333   1.938       .  S
C1329      C1330   1.414       .  A
C1330     Br1331   1.932       .  S
C1335      C1336   1.425       .  A
C1335      C1340   1.405       .  A
C1335     Br1342   1.938       .  S
C1336      C1337   1.418       .  A
C1337      C1338   1.419       .  A
C1337     Br1344   1.919   1_545  S
C1338      C1339   1.406       .  A
C1338     Br1343   1.921       .  S
C1339      C1340   1.413       .  A
C1340     Br1341   1.937       .  S
C1345      C1346   1.413       .  A
C1345      C1350   1.411       .  A
C1345     Br1352   1.919       .  S
C1346      C1347   1.403       .  A
C1347      C1348   1.406       .  A
C1347     Br1354   1.917       .  S
C1348      C1349   1.425       .  A
C1348     Br1353   1.938       .  S
C1349      C1350   1.411       .  A
C1350     Br1351   1.931       .  S
C1355      C1356   1.413       .  A
C1355      C1360   1.410       .  A
C1355     Br1362   1.921       .  S
C1356      C1357   1.427       .  A
C1357      C1358   1.409       .  A
C1357     Br1364   1.933       .  S
C1358      C1359   1.404       .  A
C1358     Br1363   1.934       .  S
C1359      C1360   1.411       .  A
C1360     Br1361   1.935       .  S
C1365      C1366   1.409   1_455  A
C1365      C1370   1.423       .  A
C1365     Br1372   1.921       .  S
C1366      C1367   1.417       .  A
C1367      C1368   1.414       .  A
C1367     Br1374   1.941       .  S
C1368      C1369   1.433   1_655  A
C1368     Br1373   1.948       .  S
C1369      C1370   1.424       .  A
C1370     Br1371   1.930       .  S
C1375      C1376   1.429       .  A
C1375      C1380   1.403       .  A
C1375     Br1382   1.940       .  S
C1376      C1377   1.429       .  A
C1377      C1378   1.417       .  A
C1377     Br1384   1.937       .  S
C1378      C1379   1.410       .  A
C1378     Br1383   1.933       .  S
C1379      C1380   1.401       .  A
C1380     Br1381   1.937       .  S
C1385      C1386   1.408       .  A
C1385      C1390   1.411       .  A
C1385     Br1392   1.922       .  S
C1386      C1387   1.402       .  A
C1387      C1388   1.412       .  A
C1387     Br1394   1.930       .  S
C1388      C1389   1.425       .  A
C1388     Br1393   1.913   1_455  S
C1389      C1390   1.418       .  A
C1390     Br1391   1.934       .  S
C1395      C1396   1.443       .  A
C1395      C1400   1.426       .  A
C1395     Br1402   1.918       .  S
C1396      C1397   1.431   1_655  A
C1397      C1398   1.425       .  A
C1397     Br1404   1.923       .  S
C1398      C1399   1.410   1_455  A
C1398     Br1403   1.928       .  S
C1399      C1400   1.405       .  A
C1400     Br1401   1.936       .  S
C1405      C1406   1.408       .  A
C1405      C1410   1.409       .  A
C1405     Br1412   1.935       .  S
C1406      C1407   1.403       .  A
C1407      C1408   1.415       .  A
C1407     Br1414   1.932       .  S
C1408      C1409   1.432       .  A
C1408     Br1413   1.931       .  S
C1409      C1410   1.416       .  A
C1410     Br1411   1.920       .  S
C1415      C1416   1.416       .  A
C1415      C1420   1.409       .  A
C1415     Br1422   1.934       .  S
C1416      C1417   1.406       .  A
C1417      C1418   1.417       .  A
C1417     Br1424   1.928       .  S
C1418      C1419   1.425       .  A
C1418     Br1423   1.930       .  S
C1419      C1420   1.418       .  A
C1420     Br1421   1.935       .  S
C1425      C1426   1.420       .  A
C1425      C1430   1.398       .  A
C1425     Br1432   1.910   1_545  S
C1426      C1427   1.432       .  A
C1427      C1428   1.428       .  A
C1427     Br1434   1.925       .  S
C1428      C1429   1.413       .  A
C1428     Br1433   1.929       .  S
C1429      C1430   1.392       .  A
C1430     Br1431   1.917   1_545  S
C1435      C1436   1.406       .  A
C1435      C1440   1.408       .  A
C1435     Br1442   1.917       .  S
C1436      C1437   1.407       .  A
C1437      C1438   1.405       .  A
C1437     Br1444   1.918       .  S
C1438      C1439   1.415       .  A
C1438     Br1443   1.931       .  S
C1439      C1440   1.421       .  A
C1440     Br1441   1.934       .  S
C1445      C1446   1.417       .  A
C1445      C1450   1.406       .  A
C1445     Br1452   1.923       .  S
C1446      C1447   1.419       .  A
C1447      C1448   1.408       .  A
C1447     Br1454   1.918       .  S
C1448      C1449   1.401       .  A
C1448     Br1453   1.933       .  S
C1449      C1450   1.404       .  A
C1450     Br1451   1.934       .  S
C1455      C1456   1.426   1_554  A
C1455      C1460   1.414       .  A
C1455     Br1462   1.942       .  S
C1456      C1457   1.425       .  A
C1457      C1458   1.416       .  A
C1457     Br1464   1.936       .  S
C1458      C1459   1.408   1_556  A
C1458     Br1463   1.917       .  S
C1459      C1460   1.411       .  A
C1460     Br1461   1.929       .  S
C1465      C1466   1.414       .  A
C1465      C1470   1.423       .  A
C1465     Br1472   1.932       .  S
C1466      C1467   1.408       .  A
C1467      C1468   1.414       .  A
C1467     Br1474   1.932       .  S
C1468      C1469   1.426       .  A
C1468     Br1473   1.933       .  S
C1469      C1470   1.419       .  A
C1470     Br1471   1.915       .  S
C1475      C1476   1.407       .  A
C1475      C1480   1.416       .  A
C1475     Br1482   1.929       .  S
C1476      C1477   1.415       .  A
C1477      C1478   1.416       .  A
C1477     Br1484   1.925       .  S
C1478      C1479   1.411       .  A
C1478     Br1483   1.930       .  S
C1479      C1480   1.425       .  A
C1480     Br1481   1.926       .  S
C1485      C1486   1.423       .  A
C1485      C1490   1.426       .  A
C1485     Br1492   1.929       .  S
C1486      C1487   1.424   1_554  A
C1487      C1488   1.440       .  A
C1487     Br1494   1.925       .  S
C1488      C1489   1.426   1_556  A
C1488     Br1493   1.925       .  S
C1489      C1490   1.425       .  A
C1490     Br1491   1.930       .  S
C1495      C1496   1.406       .  A
C1495      C1500   1.410       .  A
C1495     Br1502   1.913       .  S
C1496      C1497   1.412       .  A
C1497      C1498   1.397       .  A
C1497     Br1504   1.930       .  S
C1498      C1499   1.408       .  A
C1498     Br1503   1.932       .  S
C1499      C1500   1.416       .  A
C1500     Br1501   1.931       .  S
C1505      C1506   1.403       .  A
C1505      C1510   1.411       .  A
C1505     Br1512   1.930       .  S
C1506      C1507   1.405       .  A
C1507      C1508   1.408       .  A
C1507     Br1514   1.937       .  S
C1508      C1509   1.418       .  A
C1508     Br1513   1.908       .  S
C1509      C1510   1.424       .  A
C1510     Br1511   1.929       .  S
C1515      C1516   1.416       .  A
C1515      C1520   1.417   1_556  A
C1515     Br1522   1.932       .  S
C1516      C1517   1.417       .  A
C1517      C1518   1.411       .  A
C1517     Br1524   1.936       .  S
C1518      C1519   1.417       .  A
C1518     Br1523   1.925       .  S
C1519      C1520   1.421   1_556  A
C1520     Br1521   1.926       .  S
