geometry optimzed in LAMMPS
_audit_creation_date              2020-12-01 
_audit_creation_method            'lammps2cif' 
_symmetry_space_group_name_H-M    'P1' 
_symmetry_Int_Tables_number       1 
_symmetry_cell_setting            triclinic 
loop_ 
_symmetry_equiv_pos_as_xyz 
  x,y,z 
_cell_length_a                    41.42875346 
_cell_length_b                    41.50176336059717 
_cell_length_c                    38.7042604470362 
_cell_angle_alpha                 91.60146071233629 
_cell_angle_beta                  91.79734761139353 
_cell_angle_gamma                 88.74397300589644 
loop_ 
_atom_site_label 
_atom_site_type_symbol 
_atom_site_fract_x 
_atom_site_fract_y 
_atom_site_fract_z 
_atom_site_charge 
O1          O  0.42443278  0.99536351  0.62304090    -0.74100
O2          O  0.33628485  0.00854852  0.65597946    -0.74100
O3          O  0.39895847  0.01917327  0.68262540    -0.74200
O4          O  0.36342143  0.99044565  0.59686508    -0.74200
O5          O  0.34626948  0.43337584  0.61013100    -0.74200
O6          O  0.40184968  0.96945870  0.70260447    -0.74100
O7          O  0.32405116  0.45679532  0.67157754    -0.74100
O8          O  0.40602644  0.43700784  0.63826685    -0.74200
Ni9        Ni  0.38068872  0.00537702  0.63938960     1.25400
Ni10       Ni  0.36539752  0.44640064  0.65537257     1.25400
C11         C  0.43759509  0.96701084  0.62674970     0.88100
C12         C  0.32292076  0.98355789  0.66816497     0.88000
C13         C  0.40915062  0.99958780  0.70544299     0.88000
C14         C  0.34307281  0.45377951  0.58553981     0.88200
O15         O  0.47587142  0.04519938  0.89884080    -0.74100
O16         O  0.45992002  0.13461604  0.87097555    -0.74100
O17         O  0.45475752  0.07342335  0.84049546    -0.74200
O18         O  0.47582966  0.10479755  0.93029246    -0.74200
O19         O  0.52722847  0.11112069  0.91752479    -0.74200
O20         O  0.50625943  0.07328588  0.82566064    -0.74100
O21         O  0.51075803  0.13485188  0.85428598    -0.74100
O22         O  0.52748904  0.05202057  0.88729832    -0.74200
Ni23       Ni  0.46465896  0.08955948  0.88553329     1.25400
Ni24       Ni  0.51968825  0.09318615  0.87053355     1.25400
C25         C  0.50514735  0.03403972  0.89639867     0.88100
C26         C  0.48400206  0.14964347  0.85883943     0.88000
C27         C  0.47660822  0.06514904  0.81949353     0.88000
C28         C  0.50427502  0.11289712  0.93945731     0.88200
O29         O  0.07137491  0.42173426  0.61067854    -0.74100
O30         O  0.16103157  0.42989329  0.64368037    -0.74100
O31         O  0.10322397  0.41361697  0.67243101    -0.74200
O32         O  0.12824379  0.43304082  0.58177735    -0.74200
O33         O  0.12089790  0.48562546  0.59216241    -0.74200
O34         O  0.09171264  0.46498623  0.68501008    -0.74100
O35         O  0.15027093  0.48162063  0.65625293    -0.74100
O36         O  0.06486091  0.47437102  0.62178923    -0.74200
Ni37       Ni  0.11647732  0.42269653  0.62702291     1.25400
Ni38       Ni  0.10693077  0.47848180  0.63954130     1.25400
C39         C  0.05385079  0.44785082  0.61007252     0.88100
C40         C  0.17049657  0.45822045  0.65371986     0.88000
C41         C  0.09091229  0.43484963  0.69290633     0.88000
C42         C  0.12740563  0.46176985  0.57102376     0.88200
O43         O  0.03838638  0.39711018  0.88723807    -0.74100
O44         O  0.02795903  0.30640355  0.86157998    -0.74100
O45         O  0.04636313  0.36137633  0.82853763    -0.74200
O46         O  0.02426814  0.34295070  0.92022896    -0.74200
O47         O  0.47992081  0.34062405  0.91869004    -0.74200
O48         O  0.99535226  0.37409914  0.81437846    -0.74100
O49         O  0.97657731  0.31752000  0.84696473    -0.74100
O50         O  0.98570936  0.40469937  0.87555692    -0.74200
Ni51       Ni  0.03606302  0.35140961  0.87462441     1.25400
Ni52       Ni  0.98053152  0.36185857  0.86043307     1.25400
C53         C  0.01284886  0.41539905  0.88602842     0.88100
C54         C  0.99946347  0.29698739  0.85211287     0.88000
C55         C  0.02572637  0.37345862  0.80713356     0.88000
C56         C  0.99530377  0.34516812  0.93029716     0.88200
O57         O  0.05166390  0.08582673  0.12825578    -0.74100
O58         O  0.03740583  0.17439829  0.16099695    -0.74100
O59         O  0.05807343  0.11695436  0.19017958    -0.74200
O60         O  0.03580938  0.14266444  0.09955059    -0.74200
O61         O  0.98377662  0.13422617  0.10733970    -0.74200
O62         O  0.00792337  0.10257856  0.19974715    -0.74100
O63         O  0.98694347  0.16185722  0.17220564    -0.74100
O64         O  0.99927008  0.07790245  0.13542658    -0.74200
Ni65       Ni  0.04756906  0.13052164  0.14476374     1.25400
Ni66       Ni  0.99259465  0.11912172  0.15440005     1.25400
C67         C  0.02673753  0.06770483  0.12589275     0.88100
C68         C  0.00853091  0.18294486  0.16959120     0.88000
C69         C  0.03834742  0.10241183  0.20867746     0.88000
C70         C  0.00694977  0.14154497  0.08750196     0.88200
O71         O  0.09101557  0.03703537  0.40164967    -0.74100
O72         O  0.17900777  0.02983419  0.36768119    -0.74100
O73         O  0.11887865  0.04921836  0.34017687    -0.74200
O74         O  0.14989693  0.02332207  0.42839600    -0.74200
O75         O  0.12688423  0.45842710  0.39669488    -0.74200
O76         O  0.10828277  0.99879951  0.32323056    -0.74100
O77         O  0.15538184  0.47553727  0.33675744    -0.74100
O78         O  0.07026443  0.46773706  0.36299597    -0.74200
Ni79       Ni  0.13509351  0.03681078  0.38457063     1.25400
Ni80       Ni  0.11233760  0.47128783  0.34960230     1.25400
C81         C  0.07454237  0.01090062  0.40053961     0.88100
C82         C  0.18854178  0.00183947  0.35592839     0.88000
C83         C  0.10654854  0.02944680  0.31791624     0.88000
C84         C  0.12958951  0.47953687  0.42197926     0.88200
O85         O  0.40479048  0.41458180  0.39303094    -0.74100
O86         O  0.31686137  0.43400522  0.35966180    -0.74100
O87         O  0.37561326  0.41961439  0.33061936    -0.74200
O88         O  0.34676781  0.42403822  0.42209985    -0.74200
O89         O  0.35340606  0.47719143  0.42547678    -0.74200
O90         O  0.39144210  0.47047160  0.33388208    -0.74100
O91         O  0.32992780  0.48572071  0.35935467    -0.74100
O92         O  0.41176940  0.46751653  0.39998474    -0.74200
Ni93       Ni  0.36031202  0.42122936  0.37608416     1.25400
Ni94       Ni  0.37155444  0.47725683  0.37942312     1.25400
C95         C  0.42260995  0.43880148  0.40181476     0.88100
C96         C  0.30888739  0.46390260  0.35514677     0.88000
C97         C  0.39259264  0.44201424  0.31928745     0.88000
C98         C  0.34680352  0.45037998  0.43963461     0.88200
O99         O  0.45810006  0.40169799  0.12531664    -0.74100
O100        O  0.45892408  0.31505913  0.16304943    -0.74100
O101        O  0.44688138  0.37733066  0.18841992    -0.74200
O102        O  0.46469144  0.34093113  0.10040452    -0.74200
O103        O  0.51767098  0.34427715  0.11033275    -0.74200
O104        O  0.49923574  0.38153950  0.20226974    -0.74100
O105        O  0.51133672  0.32050183  0.17504395    -0.74100
O106        O  0.51059617  0.40291358  0.13892038    -0.74200
Ni107      Ni  0.45517209  0.35852772  0.14423552     1.25400
Ni108      Ni  0.51150793  0.36219927  0.15735714     1.25400
C109        C  0.48560893  0.41577946  0.12498745     0.88100
C110        C  0.48653134  0.30306893  0.17352747     0.88000
C111        C  0.46924143  0.38694920  0.20926058     0.88000
C112        C  0.49327866  0.33850062  0.08951650     0.88200
C113        C  0.42959276  0.39991591  0.29477362    -0.11900
C114        C  0.41650652  0.43156807  0.29241287     0.05100
C115        C  0.42658650  0.45046878  0.26513434    -0.07200
C116        C  0.44719800  0.43662723  0.23980505    -0.08000
C117        C  0.45840362  0.40421822  0.24134266    -0.02500
C118        C  0.44988687  0.38626474  0.26973568     0.04300
N119        N  0.45942434  0.35306637  0.27195162     0.66800
H120        H  0.42309752  0.38491625  0.31584679     0.15700
H121        H  0.45255600  0.45053241  0.21748056     0.14600
N122        N  0.41394135  0.48248549  0.26096328     0.74500
O123        O  0.48283292  0.34502417  0.29173159    -0.38900
O124        O  0.44164532  0.33161204  0.25829986    -0.38900
O125        O  0.43284745  0.50591556  0.26106294    -0.39600
O126        O  0.38448523  0.48688186  0.25275539    -0.39700
C127        C  0.00810728  0.48928311  0.41602512    -0.11900
C128        C  0.02077126  0.48319895  0.38336323     0.05100
C129        C  0.00442002  0.46191394  0.35975604    -0.07200
C130        C  0.47466344  0.42006946  0.38234212    -0.08000
C131        C  0.45761954  0.43590768  0.40837896    -0.02500
C132        C  0.47328088  0.45993573  0.42910024     0.04300
N133        N  0.45762973  0.47450020  0.45822598     0.66800
H134        H  0.02108101  0.50432684  0.43485527     0.15700
H135        H  0.46292126  0.40190696  0.36598299     0.15400
N136        N  0.01506351  0.45667923  0.32506253     0.74500
O137        O  0.45372847  0.45818012  0.48474003    -0.38900
O138        O  0.45237474  0.50456595  0.45962655    -0.38900
O139        O  0.06433267  0.94666700  0.46120481    -0.39600
O140        O  0.01864738  0.48041539  0.30595851    -0.39700
C141        C  0.23199654  0.95939339  0.34875905    -0.11900
C142        C  0.20831870  0.49470491  0.34246861     0.05100
C143        C  0.23133357  0.51505132  0.35870794    -0.07200
C144        C  0.26404909  0.50506972  0.36104408    -0.08000
C145        C  0.27474687  0.47473410  0.34772725    -0.02500
C146        C  0.25222100  0.45535058  0.32958759     0.04300
N147        N  0.27087532  0.91436223  0.35026221     0.66800
H148        H  0.21340275  0.94141452  0.34749101     0.15700
H149        H  0.28096018  0.52065854  0.37490597     0.15400
N150        N  0.22179853  0.54512327  0.37450844     0.74500
O151        O  0.27234755  0.89974687  0.37844574    -0.38900
O152        O  0.26931710  0.89835518  0.32208595    -0.38900
O153        O  0.21737104  0.54697757  0.40661495    -0.39600
O154        O  0.22208049  0.57052806  0.35736988    -0.39700
C155        C  0.50093492  0.00526763  0.10030586    -0.11900
C156        C  0.02808570  0.03351331  0.11525764     0.05100
C157        C  0.02296942  0.50704898  0.09902637    -0.07200
C158        C  0.01489650  0.47461716  0.09954852    -0.08000
C159        C  0.49086696  0.44769864  0.11008108    -0.02500
C160        C  0.46591020  0.47015875  0.10328382     0.04300
N161        N  0.43287456  0.46090930  0.10160386     0.66800
H162        H  0.48345945  0.02219997  0.08925735     0.15700
H163        H  0.03456719  0.45702254  0.10120268     0.15400
N164        N  0.05622187  0.51550665  0.10165936     0.74500
O165        O  0.41474619  0.46808122  0.12638717    -0.38900
O166        O  0.42075272  0.44992884  0.07348524    -0.38900
O167        O  0.07093972  0.51536294  0.13070315    -0.39600
O168        O  0.07202220  0.51792380  0.07454742    -0.39700
C169        C  0.46997573  0.24568150  0.16643691    -0.11900
C170        C  0.49193216  0.26799199  0.18044962     0.05100
C171        C  0.01409731  0.27341248  0.18482297    -0.07200
C172        C  0.02157962  0.24029292  0.18456747    -0.08000
C173        C  0.99871026  0.21765146  0.17385791    -0.02500
C174        C  0.47816967  0.21273310  0.16378232     0.04300
N175        N  0.45636526  0.19199057  0.14505013     0.66800
H176        H  0.44723867  0.25404142  0.15491869     0.15700
H177        H  0.04574887  0.23228856  0.19230810     0.15400
N178        N  0.03904857  0.29492663  0.19602765     0.74500
O179        O  0.43068765  0.18369837  0.15872107    -0.38900
O180        O  0.45991650  0.18683007  0.11311152    -0.38900
O181        O  0.04015519  0.30545808  0.22692876    -0.39600
O182        O  0.06267548  0.29907633  0.17694081    -0.39700
C183        C  0.05656479  0.03853454  0.27885444    -0.11900
C184        C  0.08952876  0.04408987  0.28693200     0.05100
C185        C  0.10410969  0.06962765  0.27037667    -0.07200
C186        C  0.08621902  0.08906722  0.24729108    -0.08000
C187        C  0.05334203  0.08375698  0.23861305    -0.02500
C188        C  0.03858790  0.05785188  0.25484743     0.04300
N189        N  0.00554424  0.05067336  0.24722814     0.66800
H190        H  0.04439298  0.01981559  0.29203932     0.15700
H191        H  0.09885464  0.10816801  0.23525686     0.15400
N192        N  0.13767349  0.07585394  0.27636628     0.74500
O193        O  0.99853345  0.02890460  0.22501888    -0.38900
O194        O  0.98380754  0.06269707  0.26605527    -0.38900
O195        O  0.15861882  0.05759220  0.26251206    -0.39600
O196        O  0.14624506  0.10173498  0.29151916    -0.39700
C197        C  0.01840273  0.33880311  0.99045845    -0.11900
C198        C  0.99068635  0.34276453  0.96847267     0.05100
C199        C  0.46979974  0.33671938  0.99374751    -0.07200
C200        C  0.46847980  0.33762963  0.02990260    -0.08000
C201        C  0.49613685  0.33197058  0.05145701    -0.02500
C202        C  0.01691094  0.34150001  0.02665114     0.04300
N203        N  0.04603003  0.33823836  0.04709717     0.66800
H204        H  0.04194754  0.33461854  0.97958506     0.15700
H205        H  0.44549038  0.34406355  0.04107795     0.15400
N206        N  0.44096666  0.34369706  0.97385018     0.74500
O207        O  0.05408753  0.31118881  0.05913809    -0.38900
O208        O  0.06575833  0.36100088  0.04902701    -0.38900
O209        O  0.42372667  0.32086390  0.96235933    -0.39600
O210        O  0.42996694  0.37226496  0.97291478    -0.39700
C211        C  0.12439983  0.43978873  0.50977792    -0.11900
C212        C  0.13209508  0.46571386  0.53299304     0.05100
C213        C  0.14302947  0.49423066  0.51896368    -0.07200
C214        C  0.15557875  0.01522945  0.49855227    -0.08000
C215        C  0.13510782  0.47166009  0.45947861    -0.02500
C216        C  0.12557618  0.44258430  0.47358216     0.04300
N217        N  0.11469648  0.41652160  0.45166233     0.66800
H218        H  0.11589493  0.41744429  0.51968483     0.15700
H219        H  0.15778934  0.03926017  0.48878884     0.15400
N220        N  0.15390086  0.04074573  0.55623353     0.74500
O221        O  0.13403980  0.39381286  0.44369385    -0.38900
O222        O  0.08500117  0.41410393  0.44399819    -0.38900
O223        O  0.18145853  0.52393936  0.55044467    -0.39600
O224        O  0.12821480  0.05680718  0.56142807    -0.39700
C225        C  0.08385700  0.39094048  0.73522937    -0.11900
C226        C  0.07465281  0.42215104  0.72451953     0.05100
C227        C  0.04721367  0.43674154  0.74036118    -0.07200
C228        C  0.02970794  0.41965727  0.76505090    -0.08000
C229        C  0.03914038  0.38829064  0.77528605    -0.02500
C230        C  0.06681576  0.37428455  0.75984326     0.04300
N231        N  0.07800031  0.34263264  0.76874713     0.66800
H232        H  0.10445369  0.37871700  0.72376775     0.15700
H233        H  0.00962680  0.43171594  0.77764910     0.15400
N234        N  0.03693994  0.46888537  0.73219688     0.74500
O235        O  0.06192131  0.31837422  0.75898426    -0.38900
O236        O  0.10541835  0.33868884  0.78334167    -0.38900
O237        O  0.00742696  0.47512832  0.72585344    -0.39600
O238        O  0.05614135  0.49183868  0.73739188    -0.39700
C239        C  0.48144922  0.13119913  0.99580772    -0.11900
C240        C  0.50904098  0.12258713  0.97665850     0.05100
C241        C  0.02919053  0.14678767  0.99321426    -0.07200
C242        C  0.03017988  0.15029940  0.02948281    -0.08000
C243        C  0.00246953  0.14600897  0.04936296    -0.02500
C244        C  0.48232340  0.13273452  0.03216257     0.04300
N245        N  0.45289888  0.13916825  0.04973296     0.66800
H246        H  0.45829870  0.13483468  0.98251522     0.15700
H247        H  0.05338748  0.15482244  0.04215094     0.15400
N248        N  0.05817313  0.15026704  0.97476690     0.74500
O249        O  0.43673575  0.16454619  0.04329062    -0.38900
O250        O  0.43940859  0.11652702  0.06444831    -0.38900
O251        O  0.06428767  0.17710332  0.96218055    -0.39600
O252        O  0.07964553  0.12824095  0.97539823    -0.39700
C253        C  0.02282669  0.46824432  0.86528122    -0.11900
C254        C  0.01337510  0.45020740  0.89284279     0.05100
C255        C  0.50047873  0.45508956  0.92512003    -0.07200
C256        C  0.48900079  0.48674803  0.91926698    -0.08000
C257        C  0.51483000  0.99984849  0.90172734    -0.02500
C258        C  0.04101010  0.00003666  0.88321391     0.04300
N259        N  0.05273098  0.01746639  0.85496472     0.66800
H260        H  0.03667458  0.45681752  0.84479780     0.15700
H261        H  0.47289820  0.49860981  0.93736409     0.15400
N262        N  0.48964126  0.43812420  0.95426846     0.74500
O263        O  0.08129719  0.02747191  0.85623119    -0.38900
O264        O  0.03679216  0.01764568  0.82665503    -0.38900
O265        O  0.50923397  0.42073929  0.97155912    -0.39600
O266        O  0.46090395  0.44164122  0.96384635    -0.39700
C267        C  0.46601162  0.20615295  0.87466721    -0.11900
C268        C  0.48374021  0.18520595  0.85298953     0.05100
C269        C  0.00375873  0.20764950  0.82715160    -0.07200
C270        C  0.01033042  0.24076527  0.82921766    -0.08000
C271        C  0.99162653  0.26204266  0.84921097    -0.02500
C272        C  0.47269983  0.23929933  0.87717066     0.04300
N273        N  0.45600787  0.25906584  0.90193207     0.66800
H274        H  0.44857658  0.19647347  0.89168419     0.15700
H275        H  0.03005241  0.24992349  0.81486151     0.15400
N276        N  0.02317382  0.18733643  0.80527900     0.74500
O277        O  0.42718886  0.26806513  0.89564231    -0.38900
O278        O  0.46830448  0.26341484  0.93189633    -0.38900
O279        O  0.01100315  0.17536155  0.77764951    -0.39600
O280        O  0.05323605  0.18473343  0.81121980    -0.39700
C281        C  0.35208208  0.42155123  0.53216676    -0.11900
C282        C  0.33349585  0.44505051  0.54938591     0.05100
C283        C  0.31587915  0.46809530  0.52951640    -0.07200
C284        C  0.32055239  0.46999251  0.49385583    -0.08000
C285        C  0.34132745  0.44816354  0.47714865    -0.02500
C286        C  0.35619881  0.42290734  0.49639402     0.04300
N287        N  0.37832608  0.40041303  0.48068548     0.66800
H288        H  0.36645693  0.40433424  0.54694994     0.15700
H289        H  0.30787453  0.48848033  0.47919736     0.15400
N290        N  0.29427506  0.49071852  0.54582306     0.74500
O291        O  0.40595103  0.40952707  0.47290347    -0.38900
O292        O  0.37249396  0.37068970  0.48012630    -0.38900
O293        O  0.30932053  0.02504070  0.54536045    -0.39600
O294        O  0.27076838  0.48060630  0.56209777    -0.39700
C295        C  0.50214904  0.40888358  0.62598784    -0.11900
C296        C  0.01954759  0.44884528  0.59867103     0.05100
C297        C  0.00486248  0.47852376  0.58834785    -0.07200
C298        C  0.49026628  0.98064571  0.60111038    -0.08000
C299        C  0.45659835  0.44657776  0.61640527    -0.02500
C300        C  0.47072556  0.41916426  0.63302429     0.04300
N301        N  0.45503975  0.40354419  0.66019560     0.66800
H302        H  0.51331054  0.39004107  0.64146720     0.15700
H303        H  0.48030996  0.00421083  0.59492679     0.15400
N304        N  0.04021511  0.03313789  0.60498675     0.74500
O305        O  0.44495390  0.37526035  0.65531196    -0.38900
O306        O  0.45595580  0.41586725  0.69038878    -0.38900
O307        O  0.06350129  0.03240427  0.58468731    -0.39600
O308        O  0.03316870  0.05916426  0.62096233    -0.39700
C309        C  0.21719248  0.49446947  0.64685434    -0.11900
C310        C  0.20527345  0.46580947  0.66008589     0.05100
C311        C  0.22674265  0.44563296  0.67858715    -0.07200
C312        C  0.25962042  0.45321801  0.68171971    -0.08000
C313        C  0.27225007  0.48085282  0.66658656    -0.02500
C314        C  0.26533388  0.00304275  0.68202354     0.04300
N315        N  0.27630622  0.03384339  0.69416483     0.66800
H316        H  0.21581252  0.01474018  0.69243359     0.15700
H317        H  0.27555861  0.43651953  0.69535522     0.15400
N318        N  0.21545516  0.41771841  0.69494870     0.74500
O319        O  0.28096421  0.05560530  0.67285966    -0.38900
O320        O  0.27712572  0.04067226  0.72614718    -0.38900
O321        O  0.22661082  0.39013552  0.68667641    -0.39600
O322        O  0.19736791  0.42098278  0.72050879    -0.39700
C323        C  0.46822387  0.05485770  0.75566142    -0.11900
C324        C  0.46593417  0.04433317  0.78941823     0.05100
C325        C  0.44754528  0.01654150  0.79496236    -0.07200
C326        C  0.43034286  0.00115522  0.76742468    -0.08000
C327        C  0.43076633  0.01302210  0.73395584    -0.02500
C328        C  0.45113632  0.03946119  0.72806808     0.04300
N329        N  0.45465443  0.05119121  0.69404282     0.66800
H330        H  0.48210844  0.07601117  0.75084299     0.15700
H331        H  0.41558248  0.98070384  0.77257396     0.15400
N332        N  0.44547338  0.00409920  0.82886237     0.74500
O333        O  0.44265039  0.07833713  0.68624963    -0.38900
O334        O  0.47367132  0.03677326  0.67367250    -0.38900
O335        O  0.41992245  0.00857927  0.84540514    -0.39600
O336        O  0.46639659  0.98377583  0.83930708    -0.39700
O337        O  0.41168024  0.48639663  0.61897093    -0.74100
O338        O  0.32286405  0.50494260  0.64792509    -0.74100
O339        O  0.38529795  0.51390997  0.67577457    -0.74200
O340        O  0.35089710  0.48296120  0.59048270    -0.74200
O341        O  0.36390473  0.93949661  0.61366272    -0.74200
O342        O  0.38651015  0.46483886  0.69754395    -0.74100
O343        O  0.33986508  0.95867483  0.67566408    -0.74100
O344        O  0.42300203  0.94559957  0.64238625    -0.74200
Ni345      Ni  0.36766840  0.49898789  0.63279493     1.25400
Ni346      Ni  0.38190326  0.95168034  0.65958844     1.25400
C347        C  0.42316683  0.45765110  0.62447378     0.88100
C348        C  0.30825793  0.48198186  0.66268607     0.88000
C349        C  0.39465615  0.49478390  0.69934771     0.88000
C350        C  0.35875807  0.96079686  0.59023788     0.88200
O351        O  0.46093398  0.54933435  0.88803836    -0.74100
O352        O  0.44776548  0.63896257  0.86042249    -0.74100
O353        O  0.43971742  0.57792920  0.82992873    -0.74200
O354        O  0.46345232  0.60876857  0.91924248    -0.74200
O355        O  0.51468691  0.61364598  0.90499649    -0.74200
O356        O  0.49088293  0.57512528  0.81403155    -0.74100
O357        O  0.49790737  0.63718966  0.84126886    -0.74100
O358        O  0.51262322  0.55438322  0.87534540    -0.74200
Ni359      Ni  0.45101509  0.59388868  0.87473703     1.25400
Ni360      Ni  0.50579988  0.59546710  0.85816720     1.25400
C361        C  0.48981722  0.53732720  0.88511303     0.88100
C362        C  0.47207527  0.65301174  0.84756292     0.88000
C363        C  0.46087995  0.56771650  0.80895024     0.88000
C364        C  0.49232377  0.61587053  0.92767715     0.88200
O365        O  0.08132249  0.94029899  0.62081773    -0.74100
O366        O  0.17116919  0.93585989  0.65388552    -0.74100
O367        O  0.11174109  0.92326954  0.68129085    -0.74200
O368        O  0.13946919  0.94732234  0.59395377    -0.74200
O369        O  0.13758239  0.99936883  0.60887642    -0.74200
O370        O  0.10594932  0.97430386  0.69941975    -0.74100
O371        O  0.16612548  0.98689905  0.67205640    -0.74100
O372        O  0.08025774  0.99192470  0.63781994    -0.74200
Ni373      Ni  0.12610280  0.93479569  0.63729617     1.25400
Ni374      Ni  0.12261929  0.98992245  0.65549084     1.25400
C375        C  0.06672908  0.96810766  0.62271302     0.88100
C376        C  0.18395247  0.96210113  0.66611596     0.88000
C377        C  0.10223881  0.94379892  0.70407566     0.88000
C378        C  0.14208218  0.97654981  0.58584023     0.88200
O379        O  0.06037012  0.89493961  0.89774089    -0.74100
O380        O  0.04190194  0.80676556  0.86655942    -0.74100
O381        O  0.06230082  0.86247385  0.83618404    -0.74200
O382        O  0.04435584  0.84023035  0.92778502    -0.74200
O383        O  0.48835671  0.83720140  0.91692696    -0.74200
O384        O  0.01167347  0.87905105  0.82587174    -0.74100
O385        O  0.99081956  0.82241895  0.85625388    -0.74100
O386        O  0.00797903  0.90680843  0.88924675    -0.74200
Ni387      Ni  0.05404069  0.85035354  0.88204802     1.25400
Ni388      Ni  0.99881383  0.86546380  0.87201482     1.25400
C389        C  0.03610684  0.91484609  0.89956212     0.88100
C390        C  0.01230892  0.80003799  0.85834030     0.88000
C391        C  0.04151452  0.87703583  0.81684113     0.88000
C392        C  0.01638705  0.84498896  0.93988904     0.88200
O393        O  0.03217716  0.57691933  0.11442975    -0.74100
O394        O  0.03661051  0.66493479  0.15258389    -0.74100
O395        O  0.04475941  0.60297817  0.17792850    -0.74200
O396        O  0.02932041  0.63683649  0.08915958    -0.74200
O397        O  0.97619935  0.63794484  0.09563904    -0.74200
O398        O  0.99209010  0.60106929  0.18727729    -0.74100
O399        O  0.98400823  0.66309754  0.16175502    -0.74100
O400        O  0.97926205  0.57954871  0.12253611    -0.74200
Ni401      Ni  0.03764740  0.62063672  0.13354896     1.25400
Ni402      Ni  0.98105782  0.62079757  0.14243965     1.25400
C403        C  0.00399823  0.56414907  0.11206033     0.88100
C404        C  0.00990591  0.67899173  0.16177008     0.88000
C405        C  0.02171981  0.59362039  0.19591663     0.88000
C406        C  0.00093228  0.64094960  0.07642592     0.88200
O407        O  0.06768203  0.51841619  0.38338311    -0.74100
O408        O  0.15900234  0.52473869  0.36034383    -0.74100
O409        O  0.09956810  0.53979301  0.32862014    -0.74200
O410        O  0.12571279  0.50931932  0.41610553    -0.74200
O411        O  0.14193611  0.97176435  0.41438176    -0.74200
O412        O  0.09528432  0.49031613  0.30594889    -0.74100
O413        O  0.16827877  0.97946311  0.35094939    -0.74100
O414        O  0.08487462  0.98572453  0.38499341    -0.74200
Ni415      Ni  0.11317749  0.52496451  0.37259759     1.25400
Ni416      Ni  0.12588797  0.98218807  0.36746134     1.25400
C417        C  0.05444611  0.49091423  0.37653715     0.88100
C418        C  0.17247164  0.49947929  0.34606537     0.88000
C419        C  0.08968360  0.52112259  0.30405007     0.88000
C420        C  0.14906890  0.99410892  0.43724303     0.88200
O421        O  0.42334738  0.91920040  0.39958816    -0.74100
O422        O  0.33366334  0.93178083  0.36726149    -0.74100
O423        O  0.39212632  0.91630580  0.33755457    -0.74200
O424        O  0.36567328  0.92908890  0.42896155    -0.74200
O425        O  0.37025158  0.98235378  0.42636256    -0.74200
O426        O  0.40589737  0.96739074  0.33403248    -0.74100
O427        O  0.34482337  0.98320105  0.36003807    -0.74100
O428        O  0.42799986  0.97260137  0.39959790    -0.74200
Ni429      Ni  0.37814766  0.92220975  0.38323265     1.25400
Ni430      Ni  0.38707279  0.97837701  0.37947605     1.25400
C431        C  0.44003218  0.94489910  0.40522471     0.88100
C432        C  0.32432880  0.96077831  0.35985724     0.88000
C433        C  0.40770129  0.93771132  0.32270924     0.88000
C434        C  0.36512721  0.95680014  0.44361773     0.88200
O435        O  0.47544742  0.90724608  0.12808470    -0.74100
O436        O  0.46653507  0.81722605  0.15397366    -0.74100
O437        O  0.45913344  0.87785983  0.18655157    -0.74200
O438        O  0.47713280  0.84868102  0.09615908    -0.74200
O439        O  0.52967152  0.84374334  0.10863564    -0.74200
O440        O  0.51137045  0.87758408  0.20204834    -0.74100
O441        O  0.51850179  0.81747122  0.17046400    -0.74100
O442        O  0.52777124  0.90141169  0.14138717    -0.74200
Ni443      Ni  0.46754849  0.86277729  0.14103531     1.25400
Ni444      Ni  0.52360175  0.85980361  0.15639967     1.25400
C445        C  0.50431122  0.91854562  0.13011100     0.88100
C446        C  0.49282163  0.80216193  0.16367467     0.88000
C447        C  0.48156909  0.88479486  0.20850323     0.88000
C448        C  0.50553734  0.84171275  0.08666127     0.88200
C449        C  0.43833930  0.94551991  0.26741815    -0.11900
C450        C  0.42997237  0.92586607  0.29459649     0.05100
C451        C  0.44374480  0.89392146  0.29513078    -0.07200
C452        C  0.46431911  0.88262726  0.26902568    -0.08000
C453        C  0.47104721  0.90151151  0.24101975    -0.02500
C454        C  0.45794318  0.93339539  0.24043730     0.04300
N455        N  0.46267734  0.95304574  0.21134711     0.66800
H456        H  0.42846758  0.96986237  0.26620869     0.15700
H457        H  0.47283540  0.85773845  0.26915953     0.14600
N458        N  0.43588556  0.87156912  0.32095708     0.74500
O459        O  0.43912486  0.96010611  0.19130725    -0.38900
O460        O  0.48989862  0.96507891  0.20693041    -0.38900
O461        O  0.41011186  0.85600897  0.31718051    -0.39600
O462        O  0.45801654  0.86088496  0.34093045    -0.39700
C463        C  0.02054415  0.03360593  0.41444516    -0.11900
C464        C  0.04257734  0.00790369  0.41564753     0.05100
C465        C  0.03160134  0.97694012  0.42414144    -0.07200
C466        C  0.49367703  0.92803246  0.38878896    -0.08000
C467        C  0.47493257  0.94459455  0.41306581    -0.02500
C468        C  0.48868608  0.97034612  0.43293954     0.04300
N469        N  0.47053385  0.98737831  0.45872237     0.66800
H470        H  0.02866631  0.05766961  0.40961439     0.15700
H471        H  0.48344606  0.90993849  0.37299964     0.15400
N472        N  0.05374772  0.95076694  0.43069991     0.74500
O473        O  0.47394077  0.97939304  0.48985832    -0.38900
O474        O  0.45769832  0.01441061  0.45191368    -0.38900
O475        O  0.01708031  0.42844331  0.31219415    -0.39600
O476        O  0.05654948  0.92811658  0.40847176    -0.39700
C477        C  0.21968754  0.46547103  0.32682319    -0.11900
C478        C  0.22343842  0.99262939  0.35098436     0.05100
C479        C  0.24860480  0.01490920  0.35281312    -0.07200
C480        C  0.28099046  0.00380961  0.35401443    -0.08000
C481        C  0.28948813  0.97051853  0.35367260    -0.02500
C482        C  0.26431084  0.94830416  0.35046439     0.04300
N483        N  0.26191303  0.42526325  0.31386777     0.66800
H484        H  0.20297243  0.44937660  0.31341227     0.15700
H485        H  0.29963305  0.02170780  0.35623792     0.15400
N486        N  0.24183555  0.04884563  0.35388920     0.74500
O487        O  0.25481911  0.39918941  0.32751593    -0.38900
O488        O  0.27350352  0.42467714  0.28408905    -0.38900
O489        O  0.25114371  0.06583787  0.37970287    -0.39600
O490        O  0.23001329  0.06235917  0.32741746    -0.39700
C491        C  0.47349498  0.50268192  0.10069929    -0.11900
C492        C  0.99823492  0.53057888  0.09986147     0.05100
C493        C  0.04952658  0.01268394  0.13272010    -0.07200
C494        C  0.04119529  0.98065053  0.13626783    -0.08000
C495        C  0.51280493  0.95178630  0.12119021    -0.02500
C496        C  0.49176065  0.97323850  0.10376585     0.04300
N497        N  0.46048133  0.96362004  0.09136846     0.66800
H498        H  0.45370485  0.51999848  0.09775435     0.15700
H499        H  0.05744315  0.96577020  0.15181231     0.15400
N500        N  0.07737550  0.02464395  0.15124953     0.74500
O501        O  0.43699328  0.96544186  0.11136585    -0.38900
O502        O  0.45523175  0.95891423  0.05935755    -0.38900
O503        O  0.07757865  0.02698979  0.18383289    -0.39600
O504        O  0.10310966  0.02872326  0.13549671    -0.39700
C505        C  0.47675182  0.74683277  0.18187366    -0.11900
C506        C  0.49676039  0.76646068  0.16349674     0.05100
C507        C  0.02476330  0.76805295  0.15350966    -0.07200
C508        C  0.03005109  0.73463346  0.15508779    -0.08000
C509        C  0.00718852  0.71469975  0.16882996    -0.02500
C510        C  0.48358553  0.71346362  0.18414925     0.04300
N511        N  0.46308790  0.69450045  0.20416755     0.66800
H512        H  0.45640598  0.75748867  0.19528470     0.15700
H513        H  0.05138113  0.72408273  0.14339295     0.15400
N514        N  0.04775848  0.78637724  0.13603990     0.74500
O515        O  0.47400695  0.68218419  0.23171505    -0.38900
O516        O  0.43332271  0.69300928  0.19646274    -0.38900
O517        O  0.07502894  0.79157462  0.15029334    -0.39600
O518        O  0.04362996  0.79086194  0.10408737    -0.39700
C519        C  0.05642879  0.56845246  0.28295937    -0.11900
C520        C  0.06946882  0.53715747  0.27568373     0.05100
C521        C  0.06141295  0.52294743  0.24300969    -0.07200
C522        C  0.04285557  0.54070962  0.21828627    -0.08000
C523        C  0.03122310  0.57244395  0.22545820    -0.02500
C524        C  0.03762642  0.58578461  0.25857532     0.04300
N525        N  0.02639097  0.61767576  0.26735024     0.66800
H526        H  0.06090420  0.58001501  0.30803313     0.15700
H527        H  0.03892625  0.53023900  0.19257855     0.15400
N528        N  0.07322571  0.49139006  0.23372021     0.74500
O529        O  0.99711921  0.62264429  0.27431373    -0.38900
O530        O  0.04622109  0.64020186  0.27152030    -0.38900
O531        O  0.05362590  0.46885467  0.22807968    -0.39600
O532        O  0.10245103  0.48720422  0.22614160    -0.39700
C533        C  0.04235005  0.84798172  0.99905950    -0.11900
C534        C  0.01390455  0.84359417  0.97828171     0.05100
C535        C  0.47978009  0.82790320  0.99244415    -0.07200
C536        C  0.47963448  0.83029215  0.02862675    -0.08000
C537        C  0.50845786  0.83265197  0.04916553    -0.02500
C538        C  0.04163145  0.85089911  0.03531133     0.04300
N539        N  0.07062444  0.85848401  0.05447928     0.66800
H540        H  0.06532619  0.85099940  0.98705821     0.15700
H541        H  0.45630529  0.83210840  0.04048915     0.15400
N542        N  0.44955183  0.82830646  0.97354510     0.74500
O543        O  0.08969388  0.83610233  0.06400754    -0.38900
O544        O  0.07938941  0.88738312  0.05745655    -0.38900
O545        O  0.42990868  0.80601835  0.97767319    -0.39600
O546        O  0.43937351  0.85422697  0.96036028    -0.39700
C547        C  0.14842706  0.95475015  0.52529962    -0.11900
C548        C  0.14859671  0.98188545  0.54844655     0.05100
C549        C  0.15299863  0.01234991  0.53453017    -0.07200
C550        C  0.14479995  0.49681092  0.48286972    -0.08000
C551        C  0.15342744  0.98823967  0.47526907    -0.02500
C552        C  0.15078761  0.95760972  0.48939584     0.04300
N553        N  0.14990307  0.92912137  0.46776501     0.66800
H554        H  0.14565737  0.93073087  0.53488252     0.15700
H555        H  0.15261675  0.51946503  0.47305421     0.15400
N556        N  0.15225312  0.52092313  0.54090109     0.74500
O557        O  0.17540246  0.91872817  0.45391305    -0.38900
O558        O  0.12522098  0.91180114  0.46677919    -0.38900
O559        O  0.18074965  0.05259139  0.56529502    -0.39600
O560        O  0.13230174  0.54373948  0.54649015    -0.39700
C561        C  0.09987743  0.90087409  0.74754956    -0.11900
C562        C  0.08670459  0.92995680  0.73506729     0.05100
C563        C  0.05641712  0.94049858  0.74782265    -0.07200
C564        C  0.04088390  0.92256912  0.77321786    -0.08000
C565        C  0.05431978  0.89323756  0.78550005    -0.02500
C566        C  0.08408353  0.88244044  0.77154476     0.04300
N567        N  0.09842902  0.85204043  0.78074033     0.66800
H568        H  0.12238754  0.89146853  0.73737712     0.15700
H569        H  0.01834160  0.93175082  0.78345250     0.15400
N570        N  0.04017090  0.96810364  0.73372675     0.74500
O571        O  0.08408832  0.82625178  0.77269058    -0.38900
O572        O  0.12679213  0.85074117  0.79359115    -0.38900
O573        O  0.02433969  0.96540297  0.70543621    -0.39600
O574        O  0.03801825  0.99392008  0.75156829    -0.39700
C575        C  0.47164449  0.63528816  0.98481300    -0.11900
C576        C  0.49824027  0.62465721  0.96501665     0.05100
C577        C  0.02480082  0.63598618  0.98229482    -0.07200
C578        C  0.02640255  0.63999353  0.01849207    -0.08000
C579        C  0.99837660  0.64566634  0.03812735    -0.02500
C580        C  0.47324472  0.63656837  0.02121444     0.04300
N581        N  0.44516848  0.64623834  0.03968209     0.66800
H582        H  0.44878975  0.64134880  0.97195309     0.15700
H583        H  0.04970813  0.63616127  0.03136081     0.15400
N584        N  0.05337174  0.62650726  0.96457343     0.74500
O585        O  0.44292509  0.67446885  0.05247634    -0.38900
O586        O  0.42084979  0.62841820  0.03880866    -0.38900
O587        O  0.07517314  0.64673229  0.96069100    -0.39600
O588        O  0.05894234  0.59706090  0.95758711    -0.39700
C589        C  0.05272066  0.96862687  0.88742744    -0.11900
C590        C  0.03879087  0.94869239  0.91078283     0.05100
C591        C  0.50893086  0.94858096  0.92976521    -0.07200
C592        C  0.49957850  0.98110741  0.92562010    -0.08000
C593        C  0.49867657  0.50312666  0.89033701    -0.02500
C594        C  0.01111708  0.49959350  0.86108932     0.04300
N595        N  0.01830308  0.51530570  0.82988026     0.66800
H596        H  0.06957913  0.95849380  0.86895682     0.15700
H597        H  0.48026476  0.99162205  0.94075447     0.15400
N598        N  0.49210367  0.92932317  0.95335337     0.74500
O599        O  0.04572623  0.52737814  0.82686912    -0.38900
O600        O  0.00074318  0.51025058  0.80314236    -0.38900
O601        O  0.50740740  0.90884489  0.97140745    -0.39600
O602        O  0.46209149  0.93331760  0.95697196    -0.39700
C603        C  0.46838946  0.70769907  0.87423279    -0.11900
C604        C  0.47388414  0.68861312  0.84449304     0.05100
C605        C  0.00210033  0.71399894  0.82275469    -0.07200
C606        C  0.01359208  0.74556619  0.82783957    -0.08000
C607        C  0.00121033  0.76614508  0.85363742    -0.02500
C608        C  0.48102733  0.73876363  0.87812114     0.04300
N609        N  0.47623189  0.75644871  0.90977288     0.66800
H610        H  0.45642623  0.69754340  0.89580960     0.15700
H611        H  0.03213268  0.75405485  0.81139465     0.15400
N612        N  0.01577657  0.69404770  0.79603626     0.74500
O613        O  0.44990323  0.77159769  0.91421313    -0.38900
O614        O  0.49549907  0.75210111  0.93519776    -0.38900
O615        O  0.00027055  0.68977696  0.76775945    -0.39600
O616        O  0.04502245  0.68501307  0.79856478    -0.39700
C617        C  0.37335914  0.93168703  0.53692204    -0.11900
C618        C  0.35164224  0.95266640  0.55342840     0.05100
C619        C  0.33266016  0.97438553  0.53313875    -0.07200
C620        C  0.33782229  0.97672711  0.49751466    -0.08000
C621        C  0.36105810  0.95700672  0.48152145    -0.02500
C622        C  0.37842726  0.93385008  0.50151229     0.04300
N623        N  0.40338248  0.91405381  0.48669850     0.66800
H624        H  0.38901203  0.91587979  0.55212572     0.15700
H625        H  0.32335818  0.99352907  0.48231234     0.15400
N626        N  0.30876524  0.99491939  0.54887997     0.74500
O627        O  0.43088225  0.92563265  0.48281388    -0.38900
O628        O  0.39979165  0.88400610  0.48339845    -0.38900
O629        O  0.29626950  0.52046736  0.54049862    -0.39600
O630        O  0.28568160  0.98274023  0.56415996    -0.39700
C631        C  0.51681380  0.92002468  0.61786638    -0.11900
C632        C  0.03320660  0.97377660  0.60956004     0.05100
C633        C  0.01992004  0.00565227  0.60694070    -0.07200
C634        C  0.47443068  0.46192114  0.59175392    -0.08000
C635        C  0.47046331  0.95766913  0.61482378    -0.02500
C636        C  0.48365621  0.92600803  0.62024603     0.04300
N637        N  0.46423876  0.90001818  0.63043427     0.66800
H638        H  0.52696719  0.89711147  0.62616716     0.15700
H639        H  0.46370169  0.48203074  0.57794465     0.15400
N640        N  0.02365999  0.50336204  0.57400336     0.74500
O641        O  0.44625600  0.88575757  0.60826376    -0.38900
O642        O  0.46826291  0.88860767  0.66019247    -0.38900
O643        O  0.04656244  0.49597624  0.55430565    -0.39600
O644        O  0.01622555  0.53273322  0.57916269    -0.39700
C645        C  0.23216498  0.99600499  0.68301261    -0.11900
C646        C  0.21986991  0.96598363  0.67066820     0.05100
C647        C  0.24213549  0.94262536  0.65821082    -0.07200
C648        C  0.27510403  0.94948796  0.65794962    -0.08000
C649        C  0.28723505  0.97958039  0.66943924    -0.02500
C650        C  0.25015873  0.50224249  0.65010118     0.04300
N651        N  0.26069124  0.53161927  0.63610283     0.66800
H652        H  0.20081536  0.51074612  0.63316251     0.15700
H653        H  0.29144463  0.93106315  0.64776035     0.15400
N654        N  0.23169384  0.91227813  0.64414984     0.74500
O655        O  0.25550285  0.53709801  0.60449207    -0.38900
O656        O  0.26979467  0.55424992  0.65631658    -0.38900
O657        O  0.22924250  0.90788492  0.61178652    -0.39600
O658        O  0.22960400  0.88862574  0.66367977    -0.39700
C659        C  0.45603167  0.54942969  0.74619123    -0.11900
C660        C  0.44916946  0.54496972  0.78083317     0.05100
C661        C  0.42760854  0.52011978  0.78865087    -0.07200
C662        C  0.41139420  0.50240384  0.76212915    -0.08000
C663        C  0.41625356  0.50867469  0.72744432    -0.02500
C664        C  0.44000412  0.53146262  0.71963850     0.04300
N665        N  0.44805369  0.53669053  0.68461582     0.66800
H666        H  0.47287944  0.56772091  0.73959265     0.15700
H667        H  0.39393119  0.48470781  0.76876024     0.15400
N668        N  0.42172567  0.51267163  0.82369923     0.74500
O669        O  0.43982221  0.56281813  0.67058208    -0.38900
O670        O  0.46730504  0.51737754  0.66957528    -0.38900
O671        O  0.39527632  0.52126838  0.83678292    -0.39600
O672        O  0.43950511  0.49193341  0.83864546    -0.39700
O673        O  0.91725975  0.01630161  0.62438295    -0.74100
O674        O  0.83145070  0.01637089  0.66476662    -0.74100
O675        O  0.89459663  0.02984357  0.68829020    -0.74200
O676        O  0.85544459  0.00851353  0.60133044    -0.74200
O677        O  0.85102039  0.43490365  0.61415404    -0.74200
O678        O  0.90236833  0.97830568  0.70116144    -0.74100
O679        O  0.82563596  0.45663504  0.67491833    -0.74100
O680        O  0.90924094  0.44843660  0.64128526    -0.74200
Ni681      Ni  0.87428641  0.01974690  0.64474067     1.25400
Ni682      Ni  0.86799571  0.45211274  0.65873311     1.25400
C683        C  0.93325961  0.98913297  0.62370911     0.88100
C684        C  0.82115874  0.98888220  0.67435493     0.88000
C685        C  0.90774909  0.00851183  0.70750345     0.88000
C686        C  0.84340834  0.45393579  0.58915643     0.88200
O687        O  0.97437062  0.05622025  0.89958336    -0.74100
O688        O  0.95583685  0.14421980  0.86738473    -0.74100
O689        O  0.95391277  0.08177978  0.83967635    -0.74200
O690        O  0.97040403  0.11700971  0.92860705    -0.74200
O691        O  0.02177736  0.12583805  0.91800149    -0.74200
O692        O  0.00597436  0.08242745  0.82726398    -0.74100
O693        O  0.00712388  0.14536120  0.85251163    -0.74100
O694        O  0.02615377  0.06546888  0.89103531    -0.74200
Ni695      Ni  0.96168083  0.09979743  0.88418933     1.25400
Ni696      Ni  0.01703284  0.10518688  0.87162001     1.25400
C697        C  0.00427736  0.04647733  0.89892219     0.88100
C698        C  0.97980896  0.15944727  0.85517616     0.88000
C699        C  0.97675880  0.07315875  0.82014702     0.88000
C700        C  0.99781942  0.12726906  0.93876167     0.88200
O701        O  0.57403517  0.40227580  0.61639268    -0.74100
O702        O  0.66296699  0.41607742  0.64903170    -0.74100
O703        O  0.60585130  0.39874585  0.67841573    -0.74200
O704        O  0.63043766  0.41503033  0.58682583    -0.74200
O705        O  0.62175077  0.46775958  0.59501108    -0.74200
O706        O  0.59082138  0.44980748  0.68755176    -0.74100
O707        O  0.64937550  0.46741504  0.66004146    -0.74100
O708        O  0.56535257  0.45527845  0.62291632    -0.74200
Ni709      Ni  0.61893387  0.40616353  0.63259514     1.25400
Ni710      Ni  0.60671222  0.46192656  0.64199812     1.25400
C711        C  0.55546658  0.42752317  0.61379556     0.88100
C712        C  0.67086562  0.44504925  0.65846330     0.88000
C713        C  0.59173970  0.42016758  0.69727277     0.88000
C714        C  0.62917084  0.44338165  0.57501617     0.88200
O715        O  0.54588027  0.38651912  0.89551423    -0.74100
O716        O  0.53413982  0.29625628  0.86973046    -0.74100
O717        O  0.55106564  0.35125011  0.83617230    -0.74200
O718        O  0.53249149  0.33227032  0.92899722    -0.74200
O719        O  0.97196055  0.35114800  0.90829127    -0.74200
O720        O  0.49957224  0.36406759  0.82429477    -0.74100
O721        O  0.48232921  0.30757816  0.85720727    -0.74100
O722        O  0.49290655  0.39454435  0.88615696    -0.74200
Ni723      Ni  0.54273943  0.34104123  0.88279089     1.25400
Ni724      Ni  0.48681000  0.35178149  0.87086539     1.25400
C725        C  0.52052371  0.40501324  0.89539155     0.88100
C726        C  0.50541251  0.28702062  0.86113414     0.88000
C727        C  0.52949734  0.36307451  0.81557228     0.88000
C728        C  0.50374067  0.33412302  0.93984255     0.88200
O729        O  0.55677145  0.06750346  0.12958432    -0.74100
O730        O  0.54660540  0.15670537  0.16290048    -0.74100
O731        O  0.56462921  0.09825159  0.19168985    -0.74200
O732        O  0.54383978  0.12497407  0.10134432    -0.74200
O733        O  0.49142730  0.11840432  0.10851626    -0.74200
O734        O  0.51379355  0.08609784  0.20102003    -0.74100
O735        O  0.49554158  0.14603257  0.17361860    -0.74100
O736        O  0.50406911  0.06193189  0.13691143    -0.74200
Ni737      Ni  0.55483137  0.11237121  0.14643833     1.25400
Ni738      Ni  0.49931580  0.10327090  0.15576919     1.25400
C739        C  0.53095564  0.05058535  0.12700223     0.88100
C740        C  0.51797587  0.16625220  0.17135794     0.88000
C741        C  0.54423910  0.08409857  0.20965768     0.88000
C742        C  0.51515396  0.12422500  0.08880696     0.88200
O743        O  0.58081914  0.00563312  0.39786268    -0.74100
O744        O  0.67132431  0.01946594  0.37593041    -0.74100
O745        O  0.61148131  0.02796339  0.34274266    -0.74200
O746        O  0.63888986  0.00313295  0.43194531    -0.74200
O747        O  0.62599517  0.44048365  0.40098984    -0.74200
O748        O  0.61343391  0.97724296  0.32242880    -0.74100
O749        O  0.65346420  0.46201758  0.34281778    -0.74100
O750        O  0.56889509  0.44736341  0.36703097    -0.74200
Ni751      Ni  0.62558466  0.01598702  0.38759031     1.25400
Ni752      Ni  0.61081564  0.45436634  0.35449246     1.25400
C753        C  0.57025637  0.97678405  0.39216209     0.88100
C754        C  0.68735029  0.99506686  0.36300214     0.88000
C755        C  0.60577723  0.00738556  0.31853083     0.88000
C756        C  0.62769258  0.46082953  0.42703511     0.88200
O757        O  0.91229527  0.42609430  0.39293286    -0.74100
O758        O  0.82058607  0.43389632  0.36818470    -0.74100
O759        O  0.87734854  0.42621184  0.33355787    -0.74200
O760        O  0.85642539  0.42849404  0.42748683    -0.74200
O761        O  0.85519722  0.48223338  0.42940953    -0.74200
O762        O  0.88763957  0.47852178  0.33473801    -0.74100
O763        O  0.82696029  0.48675203  0.36490193    -0.74100
O764        O  0.91257926  0.47963600  0.39954089    -0.74200
Ni765      Ni  0.86626407  0.42675711  0.38041763     1.25400
Ni766      Ni  0.87030672  0.48383487  0.38192670     1.25400
C767        C  0.92727461  0.45257716  0.39988194     0.88100
C768        C  0.80861467  0.46249610  0.36339384     0.88000
C769        C  0.89053353  0.45010319  0.32019224     0.88000
C770        C  0.85297057  0.45492442  0.44437267     0.88200
O771        O  0.94947518  0.41900416  0.11694248    -0.74100
O772        O  0.94989548  0.33179226  0.15386775    -0.74100
O773        O  0.93846380  0.39400974  0.17996821    -0.74200
O774        O  0.95547934  0.35837177  0.09104058    -0.74200
O775        O  0.00847924  0.36129903  0.10087988    -0.74200
O776        O  0.99094881  0.39749898  0.19342613    -0.74100
O777        O  0.00235162  0.33712768  0.16521458    -0.74100
O778        O  0.00205134  0.41978072  0.13021749    -0.74200
Ni779      Ni  0.94632087  0.37559566  0.13534416     1.25400
Ni780      Ni  0.00272044  0.37884846  0.14806718     1.25400
C781        C  0.97706793  0.43296304  0.11666031     0.88100
C782        C  0.97752730  0.31978665  0.16433340     0.88000
C783        C  0.96107587  0.40278619  0.20098174     0.88000
C784        C  0.98405628  0.35557987  0.08009698     0.88200
C785        C  0.92610366  0.41014897  0.28961043    -0.11900
C786        C  0.91216927  0.44162050  0.29036983     0.05100
C787        C  0.91978493  0.46221122  0.26346635    -0.07200
C788        C  0.93865818  0.45023383  0.23564113    -0.08000
C789        C  0.95086665  0.41810842  0.23442541    -0.02500
C790        C  0.94488573  0.39844211  0.26229613     0.04300
N791        N  0.95545296  0.36542330  0.26180087     0.66800
H792        H  0.92178749  0.39379770  0.31023481     0.15700
H793        H  0.94216476  0.46551337  0.21388077     0.14600
N794        N  0.90677398  0.49434194  0.26260881     0.74500
O795        O  0.98160732  0.35742133  0.27713247    -0.38900
O796        O  0.93682611  0.34389712  0.24984381    -0.38900
O797        O  0.92550202  0.51794287  0.26429918    -0.39600
O798        O  0.87713119  0.49901936  0.25552297    -0.39700
C799        C  0.50353874  0.47108194  0.41997636    -0.11900
C800        C  0.51911483  0.45762849  0.39126948     0.05100
C801        C  0.50476643  0.43084067  0.37318981    -0.07200
C802        C  0.97665782  0.44664324  0.36948637    -0.08000
C803        C  0.96250437  0.45455917  0.40089053    -0.02500
C804        C  0.97865042  0.47585622  0.42462546     0.04300
N805        N  0.96526266  0.48436594  0.45733879     0.66800
H806        H  0.51484602  0.49015370  0.43538872     0.15700
H807        H  0.96380914  0.43173972  0.35040507     0.15400
N808        N  0.51906817  0.41571243  0.34355419     0.74500
O809        O  0.98033157  0.47634547  0.48472178    -0.38900
O810        O  0.94306906  0.50561088  0.45903776    -0.38900
O811        O  0.54652048  0.89538049  0.35080936    -0.39600
O812        O  0.50827883  0.42264239  0.31379494    -0.39700
C813        C  0.73700097  0.96934704  0.33774673    -0.11900
C814        C  0.70518286  0.48291441  0.35259771     0.05100
C815        C  0.72683651  0.50743443  0.36242472    -0.07200
C816        C  0.76030711  0.50037912  0.36485922    -0.08000
C817        C  0.77310964  0.46896734  0.35800077    -0.02500
C818        C  0.75149232  0.44470312  0.34764470     0.04300
N819        N  0.78314456  0.93747817  0.31632405     0.66800
H820        H  0.72160607  0.95476080  0.32075545     0.15700
H821        H  0.77632205  0.51964380  0.37294149     0.15400
N822        N  0.71539195  0.53947484  0.37014456     0.74500
O823        O  0.78368616  0.90853647  0.32550240    -0.38900
O824        O  0.78956980  0.94391600  0.28565321    -0.38900
O825        O  0.71832134  0.55105665  0.40054541    -0.39600
O826        O  0.70618161  0.55751280  0.34587807    -0.39700
C827        C  0.00043638  0.02075644  0.09800314    -0.11900
C828        C  0.53030874  0.01662241  0.11522453     0.05100
C829        C  0.53079286  0.49018582  0.10699983    -0.07200
C830        C  0.52322941  0.45768234  0.10814071    -0.08000
C831        C  0.98245683  0.46509943  0.10231565    -0.02500
C832        C  0.95773166  0.48817601  0.09722132     0.04300
N833        N  0.92452991  0.47952845  0.09653128     0.66800
H834        H  0.98364397  0.03673820  0.08443899     0.15700
H835        H  0.54315890  0.44055150  0.11124942     0.15400
N836        N  0.56373935  0.49926405  0.11182054     0.74500
O837        O  0.90723127  0.48681719  0.12196395    -0.38900
O838        O  0.91147262  0.46889674  0.06873401    -0.38900
O839        O  0.57509970  0.50474504  0.14200469    -0.39600
O840        O  0.58268204  0.49603513  0.08700932    -0.39700
C841        C  0.95960616  0.26216043  0.16403342    -0.11900
C842        C  0.98306634  0.28498804  0.17295564     0.05100
C843        C  0.52211058  0.25601586  0.19418189    -0.07200
C844        C  0.53032444  0.22299443  0.19137075    -0.08000
C845        C  0.50885436  0.20105710  0.17589213    -0.02500
C846        C  0.96701891  0.22889416  0.16451424     0.04300
N847        N  0.94278154  0.20702860  0.15231982     0.66800
H848        H  0.93590765  0.27007396  0.15464292     0.15700
H849        H  0.55367924  0.21453035  0.20122282     0.15400
N850        N  0.54525492  0.27715217  0.21025448     0.74500
O851        O  0.92123030  0.19873094  0.17240203    -0.38900
O852        O  0.93977108  0.20041924  0.12038662    -0.38900
O853        O  0.54192770  0.28660338  0.24123049    -0.39600
O854        O  0.57128991  0.28232093  0.19545616    -0.39700
C855        C  0.55559151  0.02557523  0.28589263    -0.11900
C856        C  0.58945050  0.02046860  0.28679813     0.05100
C857        C  0.60757051  0.03660397  0.26282618    -0.07200
C858        C  0.59213457  0.05702233  0.23881046    -0.08000
C859        C  0.55830002  0.06301566  0.23802258    -0.02500
C860        C  0.53998446  0.04652096  0.26192029     0.04300
N861        N  0.50595050  0.05222510  0.26375136     0.66800
H862        H  0.54134425  0.01472823  0.30531855     0.15700
H863        H  0.60728738  0.06867289  0.22081083     0.15400
N864        N  0.64207143  0.03385015  0.26370074     0.74500
O865        O  0.48674287  0.02977782  0.25606148    -0.38900
O866        O  0.49543973  0.07781338  0.27821973    -0.38900
O867        O  0.65635768  0.02089481  0.23839072    -0.39600
O868        O  0.65826893  0.04858576  0.28709467    -0.39700
C869        C  0.52679793  0.32298650  0.99928968    -0.11900
C870        C  0.49944024  0.33029133  0.97781156     0.05100
C871        C  0.96063843  0.34766406  0.98405981    -0.07200
C872        C  0.95914056  0.35008905  0.02029882    -0.08000
C873        C  0.98715285  0.34798554  0.04217113    -0.02500
C874        C  0.52532184  0.32348427  0.03562230     0.04300
N875        N  0.55348419  0.31489362  0.05590851     0.66800
H876        H  0.54982243  0.31717572  0.98789211     0.15700
H877        H  0.93571063  0.35492531  0.03121256     0.15400
N878        N  0.93151247  0.35143082  0.96367006     0.74500
O879        O  0.55350131  0.29006511  0.07401865    -0.38900
O880        O  0.57941988  0.32973800  0.05262343    -0.38900
O881        O  0.91487904  0.32706071  0.95574838    -0.39600
O882        O  0.91956031  0.37926955  0.95910574    -0.39700
C883        C  0.62605584  0.42045328  0.51428213    -0.11900
C884        C  0.63426393  0.44647299  0.53710377     0.05100
C885        C  0.64566945  0.47465025  0.52282571    -0.07200
C886        C  0.65860686  0.99474691  0.49932695    -0.08000
C887        C  0.63569317  0.45225738  0.46376034    -0.02500
C888        C  0.62671813  0.42310050  0.47805717     0.04300
N889        N  0.61601800  0.39682501  0.45633542     0.66800
H890        H  0.61757337  0.39824741  0.52454216     0.15700
H891        H  0.66321760  0.01808361  0.48884313     0.15400
N892        N  0.66257499  0.02089581  0.55667775     0.74500
O893        O  0.63642742  0.37706797  0.44389736    -0.38900
O894        O  0.58628735  0.39101059  0.45321061    -0.38900
O895        O  0.68528256  0.50168456  0.55549651    -0.39600
O896        O  0.63950523  0.04064531  0.56175336    -0.39700
C897        C  0.58370972  0.37666536  0.73975005    -0.11900
C898        C  0.57548794  0.40820320  0.72920721     0.05100
C899        C  0.54931066  0.42411533  0.74611732    -0.07200
C900        C  0.53256349  0.40826091  0.77228781    -0.08000
C901        C  0.54124439  0.37670850  0.78247082    -0.02500
C902        C  0.56698465  0.36098452  0.76528668     0.04300
N903        N  0.57627714  0.32850203  0.77324040     0.66800
H904        H  0.60310081  0.36329701  0.72734124     0.15700
H905        H  0.51373956  0.42135665  0.78594269     0.15400
N906        N  0.53955542  0.45632389  0.73757478     0.74500
O907        O  0.55593941  0.30633503  0.76987004    -0.38900
O908        O  0.60526407  0.32156802  0.78149204    -0.38900
O909        O  0.50999890  0.46324125  0.73245884    -0.39600
O910        O  0.55949200  0.47881798  0.74125090    -0.39700
C911        C  0.97176105  0.13825494  0.99544518    -0.11900
C912        C  0.00006583  0.13880139  0.97581254     0.05100
C913        C  0.53874353  0.11876352  0.99467380    -0.07200
C914        C  0.53994027  0.12156089  0.03087915    -0.08000
C915        C  0.51179756  0.12708276  0.05035686    -0.02500
C916        C  0.97273066  0.14162309  0.03159893     0.04300
N917        N  0.94346071  0.13889973  0.04974808     0.66800
H918        H  0.94852910  0.13350331  0.98293788     0.15700
H919        H  0.56311063  0.11710351  0.04381449     0.15400
N920        N  0.56737099  0.10914330  0.97708684     0.74500
O921        O  0.92604422  0.16372153  0.05522075    -0.38900
O922        O  0.93212203  0.11140699  0.05422411    -0.38900
O923        O  0.59040291  0.12842644  0.97582033    -0.39600
O924        O  0.57172831  0.07996263  0.96801217    -0.39700
C925        C  0.53306636  0.45702526  0.87422871    -0.11900
C926        C  0.52188292  0.43984178  0.90163790     0.05100
C927        C  0.99287434  0.46458251  0.91782426    -0.07200
C928        C  0.98176463  0.49675922  0.91427075    -0.08000
C929        C  0.01557997  0.01270986  0.90385140    -0.02500
C930        C  0.54101471  0.98595383  0.88306135     0.04300
N931        N  0.55561675  0.00274477  0.85598038     0.66800
H932        H  0.54799212  0.44491698  0.85508686     0.15700
H933        H  0.96677481  0.50802264  0.93381635     0.15400
N934        N  0.98253957  0.44627333  0.94620133     0.74500
O935        O  0.58525020  0.00915814  0.85831262    -0.38900
O936        O  0.54023766  0.00666361  0.82769102    -0.38900
O937        O  0.00260854  0.42895272  0.96295113    -0.39600
O938        O  0.95342956  0.44766736  0.95491474    -0.39700
C939        C  0.95918492  0.21628851  0.86562443    -0.11900
C940        C  0.97893429  0.19462723  0.84697816     0.05100
C941        C  0.50730709  0.19877017  0.83199010    -0.07200
C942        C  0.51434397  0.23173584  0.83505973    -0.08000
C943        C  0.49760770  0.25220679  0.85781847    -0.02500
C944        C  0.96510929  0.24965628  0.86659352     0.04300
N945        N  0.94573263  0.27033872  0.88801081     0.66800
H946        H  0.94052213  0.20717053  0.88149885     0.15700
H947        H  0.53286972  0.24140827  0.81938033     0.15400
N948        N  0.52487262  0.17917224  0.80775214     0.74500
O949        O  0.91836089  0.28009061  0.87695768    -0.38900
O950        O  0.95354344  0.27438692  0.91957751    -0.38900
O951        O  0.51112295  0.16980078  0.77982076    -0.39600
O952        O  0.55503904  0.17528673  0.81182975    -0.39700
C953        C  0.86394772  0.42777531  0.53682546    -0.11900
C954        C  0.83775485  0.44301465  0.55292142     0.05100
C955        C  0.81479790  0.46023250  0.53224219    -0.07200
C956        C  0.82041774  0.46520996  0.49715077    -0.08000
C957        C  0.84806052  0.45210170  0.48186070    -0.02500
C958        C  0.86925113  0.43215538  0.50170308     0.04300
N959        N  0.89793415  0.41846639  0.48720965     0.66800
H960        H  0.88237929  0.41543704  0.55230045     0.15700
H961        H  0.80303758  0.47902218  0.48179787     0.15400
N962        N  0.78661427  0.47442442  0.54736101     0.74500
O963        O  0.92404044  0.43346944  0.49057295    -0.38900
O964        O  0.89851687  0.38930228  0.47709513    -0.38900
O965        O  0.79045402  0.03097375  0.54700770    -0.39600
O966        O  0.76531322  0.45657043  0.55873262    -0.39700
C967        C  0.00007356  0.42382447  0.60787301    -0.11900
C968        C  0.52092240  0.42623490  0.60424532     0.05100
C969        C  0.50641178  0.45180688  0.58526514    -0.07200
C970        C  0.98631871  0.01064079  0.60767680    -0.08000
C971        C  0.95316062  0.46074148  0.60806172    -0.02500
C972        C  0.96703023  0.42918844  0.61197109     0.04300
N973        N  0.94842240  0.40263824  0.62226679     0.66800
H974        H  0.01086804  0.40079181  0.61487883     0.15700
H975        H  0.97634516  0.03497302  0.60905908     0.15400
N976        N  0.54323616  0.99798135  0.58268305     0.74500
O977        O  0.92917492  0.38919151  0.60076147    -0.38900
O978        O  0.95416620  0.39013247  0.65123782    -0.38900
O979        O  0.56700449  0.98960280  0.56459890    -0.39600
O980        O  0.53612414  0.02758255  0.58645966    -0.39700
C981        C  0.71425169  0.48597958  0.65635365    -0.11900
C982        C  0.70519924  0.45463022  0.66504212     0.05100
C983        C  0.72932182  0.43344101  0.67784101    -0.07200
C984        C  0.76160569  0.44325535  0.68044519    -0.08000
C985        C  0.77111733  0.47407766  0.67005089    -0.02500
C986        C  0.76141233  0.00603154  0.67904998     0.04300
N987        N  0.76867757  0.03934954  0.67655765     0.66800
H988        H  0.71038088  0.01556055  0.67566261     0.15700
H989        H  0.77951737  0.42586418  0.68965550     0.15400
N990        N  0.72149827  0.40191855  0.68847164     0.74500
O991        O  0.76750715  0.05233766  0.64744295    -0.38900
O992        O  0.77172998  0.05670389  0.70370469    -0.38900
O993        O  0.73173745  0.37739461  0.67183054    -0.39600
O994        O  0.70800577  0.39851617  0.71688478    -0.39700
C995        C  0.97031690  0.06057358  0.75651683    -0.11900
C996        C  0.96733583  0.05103558  0.79054405     0.05100
C997        C  0.94800242  0.02391836  0.79650348    -0.07200
C998        C  0.93003918  0.00888183  0.76921503    -0.08000
C999        C  0.93078535  0.02032444  0.73559232    -0.02500
C1000       C  0.95245486  0.04551386  0.72924381     0.04300
N1001       N  0.95656408  0.05629966  0.69499030     0.66800
H1002       H  0.98490243  0.08112996  0.75126461     0.15700
H1003       H  0.91430362  0.98927592  0.77470929     0.15400
N1004       N  0.94539228  0.01215303  0.83065001     0.74500
O1005       O  0.94108817  0.08097025  0.68482389    -0.38900
O1006       O  0.98078497  0.04625067  0.67859983    -0.38900
O1007       O  0.91912859  0.01573147  0.84610156    -0.39600
O1008       O  0.96698984  0.99325400  0.84254599    -0.39700
O1009       O  0.90532752  0.49592307  0.61627247    -0.74100
O1010       O  0.81787380  0.50468554  0.65183551    -0.74100
O1011       O  0.88016448  0.52224285  0.67510416    -0.74200
O1012       O  0.84458032  0.48428387  0.59342081    -0.74200
O1013       O  0.86347461  0.95606602  0.61022009    -0.74200
O1014       O  0.88648992  0.47469894  0.69982274    -0.74100
O1015       O  0.84043278  0.96463533  0.67563089    -0.74100
O1016       O  0.92217933  0.96458643  0.63746425    -0.74200
Ni1017     Ni  0.86172350  0.50375026  0.63381109     1.25400
Ni1018     Ni  0.88190676  0.96412933  0.65689629     1.25400
C1019       C  0.92090145  0.46913518  0.62206980     0.88100
C1020       C  0.80661104  0.47972362  0.66632326     0.88000
C1021       C  0.89168273  0.50532091  0.69971930     0.88000
C1022       C  0.85553355  0.97951437  0.59008832     0.88200
O1023       O  0.95533690  0.56282869  0.88556003    -0.74100
O1024       O  0.94838322  0.65387529  0.85995692    -0.74100
O1025       O  0.93694631  0.59392501  0.82794270    -0.74200
O1026       O  0.96079589  0.62166373  0.91835989    -0.74200
O1027       O  0.01246807  0.62490397  0.90533116    -0.74200
O1028       O  0.98835438  0.58712708  0.81392765    -0.74100
O1029       O  0.99853411  0.64884013  0.84148551    -0.74100
O1030       O  0.00784086  0.56561700  0.87572799    -0.74200
Ni1031     Ni  0.94839397  0.60831335  0.87332451     1.25400
Ni1032     Ni  0.00360889  0.60687046  0.85841982     1.25400
C1033       C  0.98370149  0.54937908  0.88334883     0.88100
C1034       C  0.97382098  0.66645157  0.84761740     0.88000
C1035       C  0.95794341  0.58198035  0.80777622     0.88000
C1036       C  0.98967482  0.62823244  0.92740404     0.88200
O1037       O  0.58858173  0.91777510  0.62372421    -0.74100
O1038       O  0.67667480  0.92729641  0.66113467    -0.74100
O1039       O  0.61801147  0.90949517  0.68651642    -0.74200
O1040       O  0.64651638  0.93048235  0.59844420    -0.74200
O1041       O  0.63774744  0.98282815  0.60901453    -0.74200
O1042       O  0.60439858  0.96041128  0.69936635    -0.74100
O1043       O  0.66421177  0.97836388  0.67467224    -0.74100
O1044       O  0.58068605  0.97021810  0.63510903    -0.74200
Ni1045     Ni  0.63297362  0.91940224  0.64238479     1.25400
Ni1046     Ni  0.62172684  0.97481845  0.65533659     1.25400
C1047       C  0.57071386  0.94364037  0.62240469     0.88100
C1048       C  0.68523166  0.95561184  0.67224187     0.88000
C1049       C  0.60407691  0.93008119  0.70640704     0.88000
C1050       C  0.64536253  0.95923986  0.58798357     0.88200
O1051       O  0.55589096  0.88100118  0.89664247    -0.74100
O1052       O  0.53949953  0.79270055  0.86474388    -0.74100
O1053       O  0.55933687  0.84883772  0.83521566    -0.74200
O1054       O  0.54051231  0.82555554  0.92578780    -0.74200
O1055       O  0.99234603  0.85311795  0.91967454    -0.74200
O1056       O  0.50875342  0.86511148  0.82406128    -0.74100
O1057       O  0.48847213  0.80768526  0.85283614    -0.74100
O1058       O  0.50336946  0.89193812  0.88779641    -0.74200
Ni1059     Ni  0.55062385  0.83635993  0.88060911     1.25400
Ni1060     Ni  0.49532625  0.85060489  0.86964718     1.25400
C1061       C  0.53128367  0.90050865  0.89829261     0.88100
C1062       C  0.51022921  0.78564465  0.85556892     0.88000
C1063       C  0.53875266  0.86328248  0.81559815     0.88000
C1064       C  0.51225780  0.82912239  0.93739150     0.88200
O1065       O  0.53839216  0.56085138  0.11793663    -0.74100
O1066       O  0.54085098  0.65022400  0.15133582    -0.74100
O1067       O  0.55111087  0.59068984  0.17983279    -0.74200
O1068       O  0.53351744  0.61932261  0.08951784    -0.74200
O1069       O  0.48053500  0.62013930  0.09696447    -0.74200
O1070       O  0.49888451  0.58648929  0.19009372    -0.74100
O1071       O  0.48865484  0.64717850  0.16235783    -0.74100
O1072       O  0.48548020  0.56255404  0.12616190    -0.74200
Ni1073     Ni  0.54285373  0.60545060  0.13456827     1.25400
Ni1074     Ni  0.48650933  0.60439337  0.14450154     1.25400
C1075       C  0.51055641  0.54735540  0.11633847     0.88100
C1076       C  0.51408341  0.66363962  0.16111620     0.88000
C1077       C  0.52894788  0.58163878  0.19918013     0.88000
C1078       C  0.50494747  0.62301154  0.07719812     0.88200
O1079       O  0.56286917  0.49675351  0.38981598    -0.74100
O1080       O  0.65385438  0.51030808  0.36893683    -0.74100
O1081       O  0.59421813  0.52297756  0.33625605    -0.74200
O1082       O  0.62097400  0.49043467  0.42269650    -0.74200
O1083       O  0.64518967  0.95183166  0.41496298    -0.74200
O1084       O  0.59375231  0.47407931  0.31133582    -0.74100
O1085       O  0.67309737  0.96899642  0.35517159    -0.74100
O1086       O  0.58848383  0.95472879  0.38002064    -0.74200
Ni1087     Ni  0.60784842  0.50706972  0.37993501     1.25400
Ni1088     Ni  0.63045200  0.96148323  0.36729796     1.25400
C1089       C  0.55166976  0.46840619  0.38231085     0.88100
C1090       C  0.66904393  0.48628029  0.35421204     0.88000
C1091       C  0.58777288  0.50481792  0.30998845     0.88000
C1092       C  0.64572861  0.97408630  0.43914581     0.88200
O1093       O  0.93160727  0.95897981  0.40438381    -0.74100
O1094       O  0.84187998  0.94979798  0.37078565    -0.74100
O1095       O  0.90310393  0.94307627  0.34250115    -0.74200
O1096       O  0.87277449  0.95940889  0.43188869    -0.74200
O1097       O  0.86873005  0.01234143  0.42396109    -0.74200
O1098       O  0.90300550  0.99527465  0.33095091    -0.74100
O1099       O  0.84188548  0.00208579  0.35925970    -0.74100
O1100       O  0.92607712  0.01125398  0.39428757    -0.74200
Ni1101     Ni  0.88727185  0.95082765  0.38732267     1.25400
Ni1102     Ni  0.88445694  0.00702736  0.37635352     1.25400
C1103       C  0.94291882  0.98786457  0.40549884     0.88100
C1104       C  0.82669505  0.97617468  0.36244984     0.88000
C1105       C  0.91144672  0.96568465  0.32338515     0.88000
C1106       C  0.86753624  0.98773971  0.44374011     0.88200
O1107       O  0.97487959  0.92324926  0.12789118    -0.74100
O1108       O  0.96604657  0.83345240  0.15485879    -0.74100
O1109       O  0.95636947  0.89472124  0.18584211    -0.74200
O1110       O  0.97871804  0.86420165  0.09717695    -0.74200
O1111       O  0.03086394  0.86057299  0.11214439    -0.74200
O1112       O  0.00782074  0.89579222  0.20395809    -0.74100
O1113       O  0.01731167  0.83457253  0.17369806    -0.74100
O1114       O  0.02671805  0.91858149  0.14392644    -0.74200
Ni1115     Ni  0.96703226  0.87884292  0.14121617     1.25400
Ni1116     Ni  0.02242994  0.87706892  0.15935849     1.25400
C1117       C  0.00343607  0.93515462  0.13131049     0.88100
C1118       C  0.99211834  0.81874080  0.16583573     0.88000
C1119       C  0.97769943  0.90352499  0.20830427     0.88000
C1120       C  0.00764301  0.85778705  0.08911578     0.88200
C1121       C  0.92561393  0.96407773  0.25998082    -0.11900
C1122       C  0.93294462  0.95566835  0.29413627     0.05100
C1123       C  0.95881950  0.93308583  0.30000574    -0.07200
C1124       C  0.97478699  0.91763987  0.27221424    -0.08000
C1125       C  0.96580413  0.92425390  0.23800031    -0.02500
C1126       C  0.94184164  0.94884309  0.23216376     0.04300
N1127       N  0.93350651  0.95847057  0.19780181     0.66800
H1128       H  0.90630827  0.98143952  0.25468282     0.15700
H1129       H  0.99331810  0.89945369  0.27747898     0.14600
N1130       N  0.96916473  0.92544847  0.33441881     0.74500
O1131       O  0.90678103  0.95052000  0.18392444    -0.38900
O1132       O  0.95054982  0.97876202  0.18347365    -0.38900
O1133       O  0.96444736  0.89771812  0.34558203    -0.39600
O1134       O  0.98840609  0.94390217  0.35075824    -0.39700
C1135       C  0.51963856  0.98116443  0.42587904    -0.11900
C1136       C  0.53704387  0.96668992  0.39898121     0.05100
C1137       C  0.52388282  0.93955518  0.38069391    -0.07200
C1138       C  0.99859029  0.97096701  0.42412956    -0.08000
C1139       C  0.97629404  0.99572387  0.41732295    -0.02500
C1140       C  0.98751876  0.02801325  0.41644244     0.04300
N1141       N  0.96573178  0.05525953  0.41567448     0.66800
H1142       H  0.52958953  0.00084464  0.44075307     0.15700
H1143       H  0.99058983  0.94652963  0.42704262     0.15400
N1144       N  0.53921405  0.92506433  0.35124429     0.74500
O1145       O  0.94953377  0.06267167  0.44191651    -0.38900
O1146       O  0.96530391  0.07389145  0.39042991    -0.38900
O1147       O  0.53605006  0.39035431  0.34722493    -0.39600
O1148       O  0.54088641  0.94070371  0.32386741    -0.39700
C1149       C  0.71833817  0.45184984  0.34462216    -0.11900
C1150       C  0.72320386  0.99408848  0.35903026     0.05100
C1151       C  0.74412713  0.01248440  0.38059776    -0.07200
C1152       C  0.77741950  0.00533028  0.38145277    -0.08000
C1153       C  0.79091449  0.97995063  0.36117538    -0.02500
C1154       C  0.77040815  0.96217756  0.33876378     0.04300
N1155       N  0.76259447  0.41240658  0.34067895     0.66800
H1156       H  0.70268852  0.43209161  0.33723572     0.15700
H1157       H  0.79298028  0.01965294  0.39857589     0.15400
N1158       N  0.73190689  0.03737453  0.40315174     0.74500
O1159       O  0.76321689  0.39221949  0.36449105    -0.38900
O1160       O  0.76661971  0.40282057  0.30986402    -0.38900
O1161       O  0.72871694  0.03197044  0.43477187    -0.39600
O1162       O  0.72883336  0.06581610  0.39264366    -0.39700
C1163       C  0.96578681  0.52065850  0.09562785    -0.11900
C1164       C  0.50564695  0.51326547  0.10574223     0.05100
C1165       C  0.55272928  0.99446593  0.12898823    -0.07200
C1166       C  0.54395449  0.96246694  0.13170105    -0.08000
C1167       C  0.01162586  0.96852624  0.12256987    -0.02500
C1168       C  0.99186163  0.98858203  0.10187030     0.04300
N1169       N  0.96240143  0.97730985  0.08617648     0.66800
H1170       H  0.94620451  0.53836023  0.09415730     0.15700
H1171       H  0.56129708  0.94646500  0.14437982     0.15400
N1172       N  0.58250837  0.00479961  0.14482272     0.74500
O1173       O  0.93656512  0.97984739  0.10255085    -0.38900
O1174       O  0.96125818  0.96969884  0.05437956    -0.38900
O1175       O  0.58618255  0.00493674  0.17731253    -0.39600
O1176       O  0.60654458  0.00900080  0.12636681    -0.39700
C1177       C  0.97340907  0.76322839  0.18088802    -0.11900
C1178       C  0.99610843  0.78285257  0.16635156     0.05100
C1179       C  0.52400924  0.75212659  0.14729376    -0.07200
C1180       C  0.53079473  0.71912846  0.14960310    -0.08000
C1181       C  0.51065758  0.69917273  0.16727377    -0.02500
C1182       C  0.97884198  0.72956877  0.18270252     0.04300
N1183       N  0.95538892  0.71088295  0.19906491     0.66800
H1184       H  0.95176532  0.77408196  0.19159483     0.15700
H1185       H  0.55090945  0.70881758  0.13550593     0.15400
N1186       N  0.54391572  0.77048575  0.12604705     0.74500
O1187       O  0.96257693  0.69764732  0.22732579    -0.38900
O1188       O  0.92654104  0.71079577  0.18757873    -0.38900
O1189       O  0.57164457  0.77847783  0.13716125    -0.39600
O1190       O  0.53712470  0.77172394  0.09410878    -0.39700
C1191       C  0.58536349  0.55187422  0.27146510    -0.11900
C1192       C  0.57308792  0.52160453  0.27898647     0.05100
C1193       C  0.54352841  0.51271337  0.26226167    -0.07200
C1194       C  0.52755749  0.53363402  0.23841611    -0.08000
C1195       C  0.54031525  0.56374875  0.23079142    -0.02500
C1196       C  0.56945881  0.57275150  0.24821199     0.04300
N1197       N  0.58312463  0.60354305  0.24286291     0.66800
H1198       H  0.60724196  0.56000369  0.28478610     0.15700
H1199       H  0.50580270  0.52566117  0.22477355     0.15400
N1200       N  0.52882128  0.48307768  0.26992093     0.74500
O1201       O  0.56803376  0.62897995  0.25194256    -0.38900
O1202       O  0.61147744  0.60527524  0.23214414    -0.38900
O1203       O  0.50061182  0.48345278  0.28131404    -0.39600
O1204       O  0.54156633  0.45671748  0.25982458    -0.39700
C1205       C  0.53822782  0.82525271  0.99637817    -0.11900
C1206       C  0.50940557  0.82637379  0.97562759     0.05100
C1207       C  0.98457387  0.84004154  0.99500490    -0.07200
C1208       C  0.98419054  0.84158138  0.03123577    -0.08000
C1209       C  0.01213171  0.84855364  0.05189439    -0.02500
C1210       C  0.53804785  0.82886231  0.03256442     0.04300
N1211       N  0.56815947  0.83035190  0.05155767     0.66800
H1212       H  0.56153374  0.82361995  0.98445540     0.15700
H1213       H  0.96107120  0.83919418  0.04313996     0.15400
N1214       N  0.95471284  0.83601051  0.97594598     0.74500
O1215       O  0.58650934  0.80570143  0.05262678    -0.38900
O1216       O  0.57911975  0.85742649  0.06104669    -0.38900
O1217       O  0.93838365  0.81122792  0.98038251    -0.39600
O1218       O  0.94111008  0.86017068  0.96218316    -0.39700
C1219       C  0.64629119  0.93589178  0.52768319    -0.11900
C1220       C  0.65051334  0.96312133  0.55018126     0.05100
C1221       C  0.65740862  0.99265367  0.53547171    -0.07200
C1222       C  0.64649305  0.47721892  0.48673784    -0.08000
C1223       C  0.65212488  0.96800290  0.47674490    -0.02500
C1224       C  0.64671489  0.93813560  0.49153862     0.04300
N1225       N  0.63884671  0.91047116  0.47041211     0.66800
H1226       H  0.64077332  0.91272835  0.53802910     0.15700
H1227       H  0.65424841  0.49976582  0.47658954     0.15400
N1228       N  0.65628871  0.50098830  0.54453751     0.74500
O1229       O  0.66034321  0.88930891  0.46409816    -0.38900
O1230       O  0.60967806  0.90483097  0.46256632    -0.38900
O1231       O  0.69093888  0.02842011  0.56600827    -0.39600
O1232       O  0.63808797  0.52545601  0.54881196    -0.39700
C1233       C  0.59930822  0.88688999  0.74909829    -0.11900
C1234       C  0.58701550  0.91628539  0.73646355     0.05100
C1235       C  0.55635495  0.92707936  0.74802275    -0.07200
C1236       C  0.53959569  0.90905339  0.77239242    -0.08000
C1237       C  0.55218251  0.87938706  0.78465149    -0.02500
C1238       C  0.58218029  0.86822851  0.77165148     0.04300
N1239       N  0.59546172  0.83724767  0.78044019     0.66800
H1240       H  0.62214996  0.87726808  0.74000706     0.15700
H1241       H  0.51690298  0.91850233  0.78199710     0.15400
N1242       N  0.54112849  0.95520219  0.73393354     0.74500
O1243       O  0.58009225  0.81207245  0.77235413    -0.38900
O1244       O  0.62369446  0.83481414  0.79346948    -0.38900
O1245       O  0.52285596  0.95262056  0.70733628    -0.39600
O1246       O  0.54254176  0.98179673  0.75044786    -0.39700
C1247       C  0.96734485  0.64742410  0.98383567    -0.11900
C1248       C  0.99480042  0.63848719  0.96453047     0.05100
C1249       C  0.52761151  0.61756279  0.98257011    -0.07200
C1250       C  0.52942825  0.61969332  0.01885794    -0.08000
C1251       C  0.50212285  0.62770251  0.03886511    -0.02500
C1252       C  0.96882537  0.65076519  0.02006697     0.04300
N1253       N  0.93988815  0.65828430  0.03802192     0.66800
H1254       H  0.94397315  0.65056672  0.97086865     0.15700
H1255       H  0.55210048  0.61253957  0.03139926     0.15400
N1256       N  0.55477859  0.60472890  0.96442823     0.74500
O1257       O  0.93435858  0.68681706  0.04869944    -0.38900
O1258       O  0.91791398  0.63775517  0.03874048    -0.38900
O1259       O  0.58075109  0.62007451  0.96493850    -0.39600
O1260       O  0.55453648  0.57597914  0.95288597    -0.39700
C1261       C  0.55060487  0.95392858  0.88777096    -0.11900
C1262       C  0.53356323  0.93453328  0.90919815     0.05100
C1263       C  0.01551085  0.96180870  0.93362001    -0.07200
C1264       C  0.00364664  0.99362576  0.92961045    -0.08000
C1265       C  0.99061417  0.51441866  0.88586575    -0.02500
C1266       C  0.52099169  0.48787746  0.86770660     0.04300
N1267       N  0.52927358  0.50221838  0.83601666     0.66800
H1268       H  0.56846101  0.94308633  0.87086657     0.15700
H1269       H  0.98523340  0.00335853  0.94646094     0.15400
N1270       N  0.00250533  0.94208537  0.95946263     0.74500
O1271       O  0.55852302  0.50672560  0.82978216    -0.38900
O1272       O  0.50824091  0.50451679  0.81187870    -0.38900
O1273       O  0.02096776  0.92370914  0.97692238    -0.39600
O1274       O  0.97270768  0.94332503  0.96536264    -0.39700
C1275       C  0.96469857  0.72329490  0.86900961    -0.11900
C1276       C  0.97795005  0.70204687  0.84418583     0.05100
C1277       C  0.49106695  0.70216736  0.81744496    -0.07200
C1278       C  0.50364777  0.73345458  0.82131538    -0.08000
C1279       C  0.49945188  0.75171635  0.85190965    -0.02500
C1280       C  0.97617710  0.75484292  0.87396550     0.04300
N1281       N  0.96443384  0.77412795  0.90220958     0.66800
H1282       H  0.94724783  0.71461698  0.88664823     0.15700
H1283       H  0.51655562  0.74350433  0.80035387     0.15400
N1284       N  0.49611853  0.68418630  0.78596677     0.74500
O1285       O  0.93630055  0.78635407  0.90045783    -0.38900
O1286       O  0.97997815  0.77436175  0.93077387    -0.38900
O1287       O  0.47321609  0.68144463  0.76387927    -0.39600
O1288       O  0.52432560  0.67538507  0.77798093    -0.39700
C1289       C  0.88205001  0.96620285  0.53641455    -0.11900
C1290       C  0.85325641  0.97545130  0.55199722     0.05100
C1291       C  0.82918719  0.99181765  0.53190098    -0.07200
C1292       C  0.83436673  0.99825953  0.49678604    -0.08000
C1293       C  0.86383487  0.98961041  0.48175286    -0.02500
C1294       C  0.88782055  0.97373110  0.50226951     0.04300
N1295       N  0.91895775  0.96608599  0.48890435     0.66800
H1296       H  0.90160476  0.95586573  0.55190288     0.15700
H1297       H  0.81511692  0.00906647  0.48112053     0.15400
N1298       N  0.79932338  0.00169119  0.54687907     0.74500
O1299       O  0.93885988  0.98832327  0.48582382    -0.38900
O1300       O  0.92856056  0.93706782  0.48643222    -0.38900
O1301       O  0.78132763  0.50442852  0.54601551    -0.39600
O1302       O  0.78054085  0.98079427  0.55740684    -0.39700
C1303       C  0.01269354  0.94775694  0.60570051    -0.11900
C1304       C  0.53709050  0.94442234  0.60879949     0.05100
C1305       C  0.52334112  0.97395500  0.59690415    -0.07200
C1306       C  0.97189978  0.48445390  0.59410476    -0.08000
C1307       C  0.96593332  0.98448909  0.60950709    -0.02500
C1308       C  0.97928779  0.95275135  0.60483982     0.04300
N1309       N  0.95937807  0.92498378  0.60205394     0.66800
H1310       H  0.02244023  0.92331107  0.60591745     0.15700
H1311       H  0.96129601  0.50802412  0.58913797     0.15400
N1312       N  0.52480224  0.46884578  0.56103856     0.74500
O1313       O  0.94502088  0.91819020  0.57366168    -0.38900
O1314       O  0.96137372  0.90413315  0.62519595    -0.38900
O1315       O  0.54481831  0.45379538  0.54227949    -0.39600
O1316       O  0.52053886  0.49881666  0.55762776    -0.39700
C1317       C  0.72882350  0.99683656  0.67853296    -0.11900
C1318       C  0.71991860  0.96410093  0.67947415     0.05100
C1319       C  0.74472363  0.94072346  0.68354230    -0.07200
C1320       C  0.77719053  0.94991916  0.68437348    -0.08000
C1321       C  0.78627159  0.98237880  0.68084480    -0.02500
C1322       C  0.74663708  0.49571725  0.65855895     0.04300
N1323       N  0.75421009  0.52725083  0.64786533     0.66800
H1324       H  0.69615855  0.50285245  0.64640730     0.15700
H1325       H  0.79544973  0.93092853  0.68637266     0.15400
N1326       N  0.73749763  0.90739382  0.68618628     0.74500
O1327       O  0.75464114  0.53307992  0.61606485    -0.38900
O1328       O  0.75514881  0.55027110  0.66984058    -0.38900
O1329       O  0.74377333  0.88786768  0.66161051    -0.39600
O1330       O  0.72885873  0.89683844  0.71464924    -0.39700
C1331       C  0.94854941  0.56647243  0.74476479    -0.11900
C1332       C  0.94545011  0.55958712  0.77965538     0.05100
C1333       C  0.92644758  0.53280948  0.78793329    -0.07200
C1334       C  0.91072176  0.51420951  0.76172093    -0.08000
C1335       C  0.91216983  0.52227830  0.72699732    -0.02500
C1336       C  0.93207217  0.54834596  0.71860744     0.04300
N1337       N  0.93582384  0.55680843  0.68343341     0.66800
H1338       H  0.96277606  0.58676618  0.73779070     0.15700
H1339       H  0.89582558  0.49444686  0.76881307     0.15400
N1340       N  0.92205608  0.52452255  0.82308388     0.74500
O1341       O  0.92304291  0.58257091  0.67239609    -0.38900
O1342       O  0.95529465  0.54086667  0.66484995    -0.38900
O1343       O  0.90113276  0.53980455  0.84042080    -0.39600
O1344       O  0.93220946  0.49740563  0.83326661    -0.39700
loop_ 
_geom_bond_atom_site_label_1 
_geom_bond_atom_site_label_2 
_geom_bond_distance 
_geom_bond_site_symmetry_2 
_ccdc_geom_bond_type 
O1           Ni9   1.970   1_565  S
O1           C11   1.296       .  A
O2           Ni9   1.968       .  S
O2           C12   1.294   1_545  A
O3           Ni9   1.894       .  S
O3           C13   1.273   1_545  A
O4           Ni9   1.869   1_565  S
O4          C350   1.268       .  A
O5          Ni10   1.966       .  S
O5           C14   1.293       .  A
O6         Ni346   1.967       .  S
O6           C13   1.294       .  A
O7          Ni10   1.880       .  S
O7          C348   1.271       .  A
O8          Ni10   1.857       .  S
O8          C347   1.265       .  A
Ni9        Ni346   2.381   1_545  S
Ni10        O342   1.971       .  S
Ni10       Ni345   2.378       .  S
C11         O344   1.264       .  A
C11         C635   1.491       .  S
C12         O343   1.271       .  A
C12         C649   1.494       .  S
C13         C327   1.502   1_565  S
C14         O340   1.268       .  A
C14         C282   1.480       .  S
O15         Ni23   1.967       .  S
O15          C25   1.294       .  A
O16         Ni23   1.972       .  S
O16          C26   1.295       .  A
O17         Ni23   1.886       .  S
O17          C27   1.271       .  A
O18         Ni23   1.875       .  S
O18          C28   1.270       .  A
O19         Ni24   1.964       .  S
O19          C28   1.294       .  A
O20         Ni24   1.972       .  S
O20          C27   1.294       .  A
O21         Ni24   1.882       .  S
O21          C26   1.270       .  A
O22         Ni24   1.862       .  S
O22          C25   1.266       .  A
Ni23        Ni24   2.379       .  S
C25         C257   1.484   1_545  S
C26         C268   1.499       .  S
C27         C324   1.492       .  S
C28         C240   1.492       .  S
O29         Ni37   1.955       .  S
O29          C39   1.292       .  A
O30         Ni37   1.962       .  S
O30          C40   1.293       .  A
O31         Ni37   1.908       .  S
O31          C41   1.277       .  A
O32         Ni37   1.896       .  S
O32          C42   1.273       .  A
O33         Ni38   1.972       .  S
O33          C42   1.296       .  A
O34         Ni38   1.987       .  S
O34          C41   1.297       .  A
O35         Ni38   1.895       .  S
O35          C40   1.272       .  A
O36         Ni38   1.863       .  S
O36          C39   1.267       .  A
Ni37        Ni38   2.379       .  S
C39         C296   1.475       .  S
C40         C310   1.493       .  S
C41         C226   1.527       .  S
C42         C212   1.505       .  S
O43         Ni51   1.949       .  S
O43          C53   1.289       .  A
O44         Ni51   1.955       .  S
O44          C54   1.291   1_455  A
O45         Ni51   1.906       .  S
O45          C55   1.276       .  A
O46         Ni51   1.890       .  S
O46          C56   1.274   1_455  A
O47        Ni724   1.952       .  S
O47         C728   1.291       .  A
O48         Ni52   1.986       .  S
O48          C55   1.297   1_655  A
O49         Ni52   1.908       .  S
O49          C54   1.276       .  A
O50         Ni52   1.871       .  S
O50          C53   1.268   1_655  A
Ni51        Ni52   2.382   1_455  S
Ni52        O719   1.962       .  S
C53         C254   1.462       .  S
C54         C271   1.494       .  S
C55         C229   1.519       .  S
C56         O719   1.293       .  A
C56         C198   1.502       .  S
O57         Ni65   1.951       .  S
O57          C67   1.290       .  A
O58         Ni65   1.951       .  S
O58          C68   1.291       .  A
O59         Ni65   1.895       .  S
O59          C69   1.276       .  A
O60         Ni65   1.881       .  S
O60          C70   1.271       .  A
O61         Ni66   1.964       .  S
O61          C70   1.294   1_655  A
O62         Ni66   1.983   1_455  S
O62          C69   1.296       .  A
O63         Ni66   1.897       .  S
O63          C68   1.273   1_655  A
O64         Ni66   1.861       .  S
O64          C67   1.268   1_655  A
Ni65        Ni66   2.379   1_455  S
C67         C156   1.467       .  S
C68         C173   1.494   1_455  S
C69         C187   1.520       .  S
C70         C243   1.498       .  S
O71         Ni79   1.961       .  S
O71          C81   1.293       .  A
O72         Ni79   1.965       .  S
O72          C82   1.294       .  A
O73         Ni79   1.905       .  S
O73          C83   1.276       .  A
O74         Ni79   1.881       .  S
O74         C420   1.270   1_545  A
O75         Ni80   1.985       .  S
O75          C84   1.299       .  A
O76        Ni416   1.976       .  S
O76          C83   1.294   1_565  A
O77         Ni80   1.880       .  S
O77         C418   1.270       .  A
O78         Ni80   1.844       .  S
O78         C417   1.263       .  A
Ni79       Ni416   2.379   1_545  S
Ni80        O412   1.988       .  S
Ni80       Ni415   2.376       .  S
C81         O414   1.264   1_545  A
C81         C464   1.473       .  S
C82         O413   1.272   1_545  A
C82         C478   1.504   1_545  S
C83         C184   1.508       .  S
C84         O410   1.269       .  A
C84         C215   1.506       .  S
O85         Ni93   1.953       .  S
O85          C95   1.292       .  A
O86         Ni93   1.957       .  S
O86          C96   1.292       .  A
O87         Ni93   1.888       .  S
O87          C97   1.274       .  A
O88         Ni93   1.884       .  S
O88          C98   1.271       .  A
O89         Ni94   1.956       .  S
O89          C98   1.292       .  A
O90         Ni94   1.979       .  S
O90          C97   1.295       .  A
O91         Ni94   1.899       .  S
O91          C96   1.274       .  A
O92         Ni94   1.865       .  S
O92          C95   1.267       .  A
Ni93        Ni94   2.381       .  S
C95         C131   1.468       .  S
C96         C145   1.496       .  S
C97         C114   1.507       .  S
C98         C285   1.482       .  S
O99        Ni107   1.962       .  S
O99         C109   1.293       .  A
O100       Ni107   1.965       .  S
O100        C110   1.295       .  A
O101       Ni107   1.898       .  S
O101        C111   1.273       .  A
O102       Ni107   1.878       .  S
O102        C112   1.270       .  A
O103       Ni108   1.969       .  S
O103        C112   1.295       .  A
O104       Ni108   1.971       .  S
O104        C111   1.294       .  A
O105       Ni108   1.879       .  S
O105        C110   1.269       .  A
O106       Ni108   1.852       .  S
O106        C109   1.267       .  A
Ni107      Ni108   2.380       .  S
C109        C159   1.483       .  S
C110        C170   1.498       .  S
C111        C117   1.493       .  S
C112        C201   1.498       .  S
C113        C114   1.414       .  A
C113        C118   1.402       .  A
C113        H120   1.084       .  S
C114        C115   1.412       .  A
C115        C116   1.421       .  A
C115        N122   1.429       .  S
C116        C117   1.415       .  A
C116        H121   1.084       .  S
C117        C118   1.403       .  A
C118        N119   1.429       .  S
N119        O123   1.262       .  A
N119        O124   1.262       .  A
N122        O126   1.262       .  A
N122        O125   1.262       .  A
C127        C128   1.398       .  A
C127        C804   1.406   1_455  A
C127        H134   1.084       .  S
C128        C417   1.472       .  S
C128        C129   1.420       .  A
C129        C802   1.392   1_455  A
C129        N136   1.436       .  S
C130        C131   1.390       .  A
C130        C801   1.393       .  A
C130        H135   1.084       .  S
C131        C132   1.418       .  A
C132        C799   1.404       .  A
C132        N133   1.431       .  S
N133        O137   1.262       .  A
N133        O138   1.262       .  A
N136        O140   1.262       .  A
N136        O475   1.263       .  A
O139        N472   1.261       .  A
C141        C478   1.418       .  A
C141        C482   1.406       .  A
C141        H148   1.083       .  S
C142        C418   1.504       .  S
C142        C143   1.409       .  A
C142        C477   1.419       .  A
C143        C144   1.409       .  A
C143        N150   1.428       .  S
C144        C145   1.414       .  A
C144        H149   1.084       .  S
C145        C146   1.404       .  A
C146        C477   1.405       .  A
C146        N483   1.429       .  S
N147        C482   1.429       .  S
N147        O151   1.262       .  A
N147        O152   1.262       .  A
N150        O154   1.262       .  A
N150        O153   1.262       .  A
C155        C828   1.415       .  A
C155        C496   1.402   1_545  A
C155        H162   1.084       .  S
C156        C827   1.413       .  A
C156        C493   1.398       .  A
C157        C158   1.395       .  A
C157        C492   1.400   1_455  A
C157        N164   1.429       .  S
C158        C831   1.417   1_455  A
C158        H163   1.084       .  S
C159        C160   1.401       .  A
C159        C830   1.417       .  A
C160        C491   1.400       .  A
C160        N161   1.429       .  S
N161        O165   1.262       .  A
N161        O166   1.262       .  A
N164        O168   1.262       .  A
N164        O167   1.262       .  A
C169        C170   1.399       .  A
C169        C174   1.403       .  A
C169        H176   1.084       .  S
C170        C843   1.428       .  A
C171        C172   1.402       .  A
C171        C842   1.429   1_455  A
C171        N178   1.430       .  S
C172        C173   1.395   1_455  A
C172        H177   1.084       .  S
C173        C846   1.423       .  A
C174        C845   1.421       .  A
C174        N175   1.429       .  S
N175        O179   1.262       .  A
N175        O180   1.261       .  A
N178        O182   1.262       .  A
N178        O181   1.262       .  A
C183        C184   1.414       .  A
C183        C188   1.426       .  A
C183        H190   1.083       .  S
C184        C185   1.410       .  A
C185        C186   1.404       .  A
C185        N192   1.430       .  S
C186        C187   1.413       .  A
C186        H191   1.083       .  S
C187        C188   1.419       .  A
C188        N189   1.427       .  S
N189        O193   1.262   1_455  A
N189        O194   1.262   1_455  A
N192        O196   1.262       .  A
N192        O195   1.262       .  A
C197        C198   1.417   1_455  A
C197        C202   1.405   1_556  A
C197        H204   1.083       .  S
C198        C871   1.409       .  A
C199        C200   1.402   1_556  A
C199        C870   1.408       .  A
C199        N206   1.429       .  S
C200        C201   1.415       .  A
C200        H205   1.083       .  S
C201        C874   1.406       .  A
C202        C873   1.406   1_455  A
C202        N203   1.428       .  S
N203        O207   1.262       .  A
N203        O208   1.262       .  A
N206        O210   1.262       .  A
N206        O209   1.262       .  A
C211        C212   1.418       .  A
C211        C216   1.411       .  A
C211        H218   1.083       .  S
C212        C213   1.406       .  A
C213        C550   1.408       .  A
C213        N556   1.428       .  S
C214        C549   1.409       .  A
C214        C551   1.420   1_545  A
C214        H219   1.083       .  S
C215        C216   1.408       .  A
C215        C550   1.419       .  A
C216        N217   1.428       .  S
N217        O221   1.262       .  A
N217        O222   1.262       .  A
N220        C549   1.428       .  S
N220        O224   1.262       .  A
N220        O559   1.262       .  A
O223        N556   1.262       .  A
C225        C226   1.412       .  A
C225        C230   1.409       .  A
C225        H232   1.084       .  S
C226        C227   1.424       .  A
C227        C228   1.430       .  A
C227        N234   1.432       .  S
C228        C229   1.415       .  A
C228        H233   1.083       .  S
C229        C230   1.416       .  A
C230        N231   1.431       .  S
N231        O235   1.262       .  A
N231        O236   1.262       .  A
N234        O238   1.262       .  A
N234        O237   1.262       .  A
C239        C240   1.416       .  A
C239        C244   1.406   1_556  A
C239        H246   1.084       .  S
C240        C913   1.403       .  A
C241        C242   1.407   1_556  A
C241        C912   1.405       .  A
C241        N248   1.428       .  S
C242        C243   1.419       .  A
C242        H247   1.083       .  S
C243        C916   1.405   1_455  A
C244        C915   1.409       .  A
C244        N245   1.431       .  S
N245        O249   1.262       .  A
N245        O250   1.262       .  A
N248        O252   1.262       .  A
N248        O251   1.262       .  A
C253        C254   1.391       .  A
C253        C594   1.391       .  A
C253        H260   1.085       .  S
C254        C927   1.417   1_455  A
C255        C256   1.409       .  A
C255        C926   1.417       .  A
C255        N262   1.435       .  S
C256        C593   1.400       .  A
C256        H261   1.083       .  S
C257        C592   1.399       .  A
C257        C930   1.425       .  A
C258        C589   1.393   1_545  A
C258        C929   1.425       .  A
C258        N259   1.431       .  S
N259        O263   1.262       .  A
N259        O264   1.262       .  A
N262        O266   1.262       .  A
N262        O265   1.263       .  A
C267        C268   1.403       .  A
C267        C272   1.409       .  A
C267        H274   1.084       .  S
C268        C941   1.425       .  A
C269        C270   1.407       .  A
C269        C940   1.427   1_455  A
C269        N276   1.431       .  S
C270        C271   1.396   1_455  A
C270        H275   1.084       .  S
C271        C944   1.419       .  A
C272        C943   1.417       .  A
C272        N273   1.429       .  S
N273        O277   1.262       .  A
N273        O278   1.262       .  A
N276        O280   1.262       .  A
N276        O279   1.262       .  A
C281        C282   1.397       .  A
C281        C286   1.403       .  A
C281        H288   1.084       .  S
C282        C283   1.419       .  A
C283        C284   1.404       .  A
C283        N290   1.431       .  S
C284        C285   1.396       .  A
C284        H289   1.084       .  S
C285        C286   1.421       .  A
C286        N287   1.431       .  S
N287        O291   1.261       .  A
N287        O292   1.262       .  A
N290        O294   1.262       .  A
N290        O629   1.262       .  A
O293        N626   1.262   1_545  A
C295        C300   1.394       .  A
C295        C968   1.390       .  A
C295        H302   1.085       .  S
C296        C297   1.423       .  A
C296        C967   1.390       .  A
C297       C1306   1.406   1_455  A
C297        N640   1.439       .  S
C298       C1305   1.406       .  A
C298        C635   1.398       .  A
C298        H303   1.083   1_565  S
C299        C347   1.489       .  S
C299        C300   1.428       .  A
C299        C634   1.400       .  A
C300        N301   1.431       .  S
N301        O305   1.262       .  A
N301        O306   1.262       .  A
N304        C633   1.437       .  S
N304        O308   1.263       .  A
N304        O307   1.262       .  A
C309        C310   1.413       .  A
C309        C650   1.411       .  A
C309        H652   1.084       .  S
C310        C311   1.402       .  A
C311        C312   1.405       .  A
C311        N318   1.430       .  S
C312        C313   1.420       .  A
C312        H317   1.083       .  S
C313        C348   1.506       .  S
C313        C650   1.411       .  A
C314        C645   1.413   1_545  A
C314        C649   1.404   1_545  A
C314        N315   1.428       .  S
N315        O319   1.262       .  A
N315        O320   1.262       .  A
H316        C645   1.083   1_545  S
N318        O322   1.262       .  A
N318        O321   1.262       .  A
C323        C324   1.396       .  A
C323        C328   1.409       .  A
C323        H330   1.084       .  S
C324        C325   1.421       .  A
C325        C326   1.409       .  A
C325        N332   1.429       .  S
C326        C327   1.399       .  A
C326        H331   1.083   1_545  S
C327        C328   1.426       .  A
C328        N329   1.430       .  S
N329        O333   1.262       .  A
N329        O334   1.262       .  A
N332        O336   1.261   1_545  A
N332        O335   1.262       .  A
O337       Ni345   1.972       .  S
O337        C347   1.295       .  A
O338       Ni345   1.972       .  S
O338        C348   1.295       .  A
O339       Ni345   1.890       .  S
O339        C349   1.272       .  A
O340       Ni345   1.870       .  S
O341       Ni346   1.963       .  S
O341        C350   1.294       .  A
O342        C349   1.294       .  A
O343       Ni346   1.882       .  S
O344       Ni346   1.857       .  S
C349        C663   1.497       .  S
C350        C618   1.477       .  S
O351       Ni359   1.965       .  S
O351        C361   1.293       .  A
O352       Ni359   1.966       .  S
O352        C362   1.294       .  A
O353       Ni359   1.888       .  S
O353        C363   1.272       .  A
O354       Ni359   1.874       .  S
O354        C364   1.269       .  A
O355       Ni360   1.971       .  S
O355        C364   1.296       .  A
O356       Ni360   1.972       .  S
O356        C363   1.295       .  A
O357       Ni360   1.886       .  S
O357        C362   1.270       .  A
O358       Ni360   1.860       .  S
O358        C361   1.266       .  A
Ni359      Ni360   2.381       .  S
C361        C593   1.476       .  S
C362        C604   1.489       .  S
C363        C660   1.497       .  S
C364        C576   1.495       .  S
O365       Ni373   1.953       .  S
O365        C375   1.292       .  A
O366       Ni373   1.956       .  S
O366        C376   1.293       .  A
O367       Ni373   1.898       .  S
O367        C377   1.274       .  A
O368       Ni373   1.874       .  S
O368        C378   1.269       .  A
O369       Ni374   1.978       .  S
O369        C378   1.297       .  A
O370       Ni374   1.986       .  S
O370        C377   1.297       .  A
O371       Ni374   1.897       .  S
O371        C376   1.273       .  A
O372       Ni374   1.864       .  S
O372        C375   1.267       .  A
Ni373      Ni374   2.378       .  S
C375        C632   1.480       .  S
C376        C646   1.505       .  S
C377        C562   1.512       .  S
C378        C548   1.504       .  S
O379       Ni387   1.952       .  S
O379        C389   1.289       .  A
O380       Ni387   1.961       .  S
O380        C390   1.291       .  A
O381       Ni387   1.902       .  S
O381        C391   1.276       .  A
O382       Ni387   1.888       .  S
O382        C392   1.273       .  A
O383      Ni1060   1.959       .  S
O383       C1064   1.293       .  A
O384       Ni388   1.980   1_455  S
O384        C391   1.296       .  A
O385       Ni388   1.904       .  S
O385        C390   1.275   1_655  A
O386       Ni388   1.866   1_455  S
O386        C389   1.268       .  A
Ni387      Ni388   2.382   1_455  S
Ni388      O1055   1.956       .  S
C389        C590   1.464       .  S
C390        C607   1.494       .  S
C391        C565   1.519       .  S
C392       O1055   1.292   1_455  A
C392        C534   1.496       .  S
O393       Ni401   1.955       .  S
O393        C403   1.292       .  A
O394       Ni401   1.961       .  S
O394        C404   1.294       .  A
O395       Ni401   1.898       .  S
O395        C405   1.273       .  A
O396       Ni401   1.881       .  S
O396        C406   1.271       .  A
O397       Ni402   1.967       .  S
O397        C406   1.295   1_655  A
O398       Ni402   1.976       .  S
O398        C405   1.295   1_655  A
O399       Ni402   1.894       .  S
O399        C404   1.272   1_655  A
O400       Ni402   1.860       .  S
O400        C403   1.267   1_655  A
Ni401      Ni402   2.380   1_455  S
C403        C492   1.480   1_455  S
C404        C509   1.502       .  S
C405        C523   1.499       .  S
C406        C579   1.501   1_455  S
O407       Ni415   1.969       .  S
O407        C417   1.294       .  A
O408       Ni415   1.971       .  S
O408        C418   1.295       .  A
O409       Ni415   1.891       .  S
O409        C419   1.273       .  A
O410       Ni415   1.876       .  S
O411       Ni416   1.970       .  S
O411        C420   1.296       .  A
O412        C419   1.298       .  A
O413       Ni416   1.888       .  S
O414       Ni416   1.851       .  S
C419        C520   1.519       .  S
C420        C551   1.503       .  S
O421       Ni429   1.960       .  S
O421        C431   1.293       .  A
O422       Ni429   1.961       .  S
O422        C432   1.293       .  A
O423       Ni429   1.885       .  S
O423        C433   1.270       .  A
O424       Ni429   1.872       .  S
O424        C434   1.268       .  A
O425       Ni430   1.966       .  S
O425        C434   1.294       .  A
O426       Ni430   1.984       .  S
O426        C433   1.297       .  A
O427       Ni430   1.892       .  S
O427        C432   1.273       .  A
O428       Ni430   1.857       .  S
O428        C431   1.265       .  A
Ni429      Ni430   2.377       .  S
C431        C467   1.468       .  S
C432        C481   1.504       .  S
C433        C450   1.513       .  S
C434        C621   1.482       .  S
O435       Ni443   1.963       .  S
O435        C445   1.293       .  A
O436       Ni443   1.971       .  S
O436        C446   1.294       .  A
O437       Ni443   1.893       .  S
O437        C447   1.272       .  A
O438       Ni443   1.869       .  S
O438        C448   1.269       .  A
O439       Ni444   1.969       .  S
O439        C448   1.295       .  A
O440       Ni444   1.972       .  S
O440        C447   1.294       .  A
O441       Ni444   1.872       .  S
O441        C446   1.268       .  A
O442       Ni444   1.851       .  S
O442        C445   1.265       .  A
Ni443      Ni444   2.380       .  S
C445        C495   1.484       .  S
C446        C506   1.487       .  S
C447        C453   1.493       .  S
C448        C537   1.497       .  S
C449        C450   1.405       .  A
C449        C454   1.417       .  A
C449        H456   1.083       .  S
C450        C451   1.432       .  A
C451        C452   1.406       .  A
C451        N458   1.432       .  S
C452        C453   1.394       .  A
C452        H457   1.084       .  S
C453        C454   1.420       .  A
C454        N455   1.429       .  S
N455        O459   1.262       .  A
N455        O460   1.262       .  A
N458        O462   1.262       .  A
N458        O461   1.262       .  A
C463        C464   1.389       .  A
C463       C1140   1.398   1_455  A
C463        H470   1.084       .  S
C464        C465   1.423   1_545  A
C465       C1138   1.395   1_455  A
C465        N472   1.429       .  S
C466       C1137   1.397       .  A
C466        C467   1.395       .  A
C466        H471   1.044       .  S
C467        C468   1.418       .  A
C468       C1135   1.405       .  A
C468        N469   1.430       .  S
N469        O473   1.262       .  A
N469        O474   1.262   1_565  A
N472        O476   1.262       .  A
C477        H484   1.083       .  S
C478        C479   1.407   1_565  A
C479        C480   1.409       .  A
C479        N486   1.430       .  S
C480        C481   1.418   1_545  A
C480        H485   1.083       .  S
C481        C482   1.407       .  A
N483        O487   1.262       .  A
N483        O488   1.262       .  A
N486        O490   1.262       .  A
N486        O489   1.262       .  A
C491       C1164   1.418       .  A
C491        H498   1.084       .  S
C492       C1163   1.418       .  A
C493        C494   1.392   1_545  A
C493        N500   1.430       .  S
C494       C1167   1.416       .  A
C494        H499   1.083       .  S
C495       C1166   1.418       .  A
C495        C496   1.404       .  A
C496        N497   1.429       .  S
N497        O501   1.262       .  A
N497        O502   1.262       .  A
N500        O504   1.262       .  A
N500        O503   1.262       .  A
C505        C506   1.398       .  A
C505        C510   1.412       .  A
C505        H512   1.083       .  S
C506       C1179   1.420       .  A
C507       C1178   1.422   1_455  A
C507        C508   1.402       .  A
C507        N514   1.430       .  S
C508        C509   1.398       .  A
C508        H513   1.084       .  S
C509       C1182   1.427   1_455  A
C510       C1181   1.425       .  A
C510        N511   1.430       .  S
N511        O515   1.262       .  A
N511        O516   1.262       .  A
N514        O518   1.262       .  A
N514        O517   1.262       .  A
C519        C520   1.420       .  A
C519        C524   1.408       .  A
C519        H526   1.083       .  S
C520        C521   1.414       .  A
C521        C522   1.421       .  A
C521        N528   1.429       .  S
C522        C523   1.416       .  A
C522        H527   1.084       .  S
C523        C524   1.402       .  A
C524        N525   1.429       .  S
N525        O529   1.262   1_455  A
N525        O530   1.262       .  A
N528        O532   1.262       .  A
N528        O531   1.262       .  A
C533        C534   1.418       .  A
C533        C538   1.406   1_556  A
C533        H540   1.083       .  S
C534       C1207   1.407   1_455  A
C535       C1206   1.407       .  A
C535        C536   1.401   1_556  A
C535        N542   1.430       .  S
C536        C537   1.417       .  A
C536        H541   1.083       .  S
C537       C1210   1.406       .  A
C538       C1209   1.405       .  A
C538        N539   1.428       .  S
N539        O543   1.262       .  A
N539        O544   1.262       .  A
N542        O546   1.262       .  A
N542        O545   1.262       .  A
C547        C548   1.419       .  A
C547        C552   1.405       .  A
C547        H554   1.083       .  S
C548        C549   1.406   1_565  A
C550        H555   1.084       .  S
C551        C552   1.406       .  A
C552        N553   1.430       .  S
N553        O557   1.262       .  A
N553        O558   1.262       .  A
N556        O560   1.262       .  A
C561        C562   1.405       .  A
C561        C566   1.406       .  A
C561        H568   1.084       .  S
C562        C563   1.419       .  A
C563        C564   1.427       .  A
C563        N570   1.429       .  S
C564        C565   1.416       .  A
C564        H569   1.083       .  S
C565        C566   1.420       .  A
C566        N567   1.432       .  S
N567        O571   1.262       .  A
N567        O572   1.262       .  A
N570        O574   1.261       .  A
N570        O573   1.262       .  A
C575        C576   1.417       .  A
C575        C580   1.408   1_556  A
C575        H582   1.084       .  S
C576       C1249   1.404       .  A
C577       C1248   1.405   1_455  A
C577        C578   1.406   1_556  A
C577        N584   1.429       .  S
C578        C579   1.419   1_455  A
C578        H583   1.083       .  S
C579       C1252   1.406       .  A
C580       C1251   1.406       .  A
C580        N581   1.428       .  S
N581        O585   1.262       .  A
N581        O586   1.262       .  A
N584        O588   1.262       .  A
N584        O587   1.262       .  A
C589        C590   1.389       .  A
C589        H596   1.085       .  S
C590       C1263   1.418       .  A
C591       C1262   1.419       .  A
C591        C592   1.408       .  A
C591        N598   1.436       .  S
C592        H597   1.083       .  S
C593       C1266   1.420       .  A
C594       C1265   1.419   1_455  A
C594        N595   1.431       .  S
N595        O599   1.262       .  A
N595        O600   1.262       .  A
N598        O602   1.262       .  A
N598        O601   1.263       .  A
C603        C604   1.401       .  A
C603        C608   1.405       .  A
C603        H610   1.084       .  S
C604       C1277   1.420       .  A
C605       C1276   1.425   1_455  A
C605        C606   1.410       .  A
C605        N612   1.430       .  S
C606        C607   1.398       .  A
C606        H611   1.084       .  S
C607       C1280   1.417   1_455  A
C608       C1279   1.413       .  A
C608        N609   1.427       .  S
N609        O613   1.261       .  A
N609        O614   1.262       .  A
N612        O616   1.262       .  A
N612        O615   1.262       .  A
C617        C618   1.395       .  A
C617        C622   1.399       .  A
C617        H624   1.085       .  S
C618        C619   1.420       .  A
C619        C620   1.408       .  A
C619        N626   1.432       .  S
C620        C621   1.398       .  A
C620        H625   1.084       .  S
C621        C622   1.420       .  A
C622        N623   1.430       .  S
N623        O627   1.261       .  A
N623        O628   1.262       .  A
N626        O630   1.262       .  A
C631       C1304   1.389       .  A
C631        C636   1.396       .  A
C631        H638   1.084       .  S
C632       C1303   1.391       .  A
C632        C633   1.427   1_565  A
C633        C970   1.404   1_455  A
C634        C969   1.409       .  A
C634        H639   1.083       .  S
C635        C636   1.430       .  A
C636        N637   1.431       .  S
N637        O641   1.262       .  A
N637        O642   1.262       .  A
N640        O644   1.263       .  A
N640        O643   1.263       .  A
C645        C646   1.421       .  A
C646        C647   1.409       .  A
C647        C648   1.402       .  A
C647        N654   1.428       .  S
C648        C649   1.412       .  A
C648        H653   1.084       .  S
C650        N651   1.430       .  S
N651        O655   1.262       .  A
N651        O656   1.262       .  A
N654        O658   1.262       .  A
N654        O657   1.262       .  A
C659        C660   1.397       .  A
C659        C664   1.410       .  A
C659        H666   1.083       .  S
C660        C661   1.424       .  A
C661        C662   1.408       .  A
C661        N668   1.429       .  S
C662        C663   1.396       .  A
C662        H667   1.084       .  S
C663        C664   1.425       .  A
C664        N665   1.430       .  S
N665        O669   1.262       .  A
N665        O670   1.262       .  A
N668        O672   1.261       .  A
N668        O671   1.262       .  A
O673       Ni681   1.970       .  S
O673        C683   1.295   1_545  A
O674       Ni681   1.968       .  S
O674        C684   1.295   1_545  A
O675       Ni681   1.900       .  S
O675        C685   1.274       .  A
O676       Ni681   1.881       .  S
O676       C1022   1.268   1_545  A
O677       Ni682   1.964       .  S
O677        C686   1.293       .  A
O678      Ni1018   1.968       .  S
O678        C685   1.293   1_565  A
O679       Ni682   1.886       .  S
O679       C1020   1.272       .  A
O680       Ni682   1.859       .  S
O680       C1019   1.265       .  A
Ni681     Ni1018   2.381   1_545  S
Ni682      O1014   1.966       .  S
Ni682     Ni1017   2.380       .  S
C683       O1016   1.264       .  A
C683       C1307   1.484       .  S
C684       O1015   1.272       .  A
C684       C1321   1.506       .  S
C685        C999   1.503       .  S
C686       O1012   1.267       .  A
C686        C954   1.475       .  S
O687       Ni695   1.975       .  S
O687        C697   1.296   1_655  A
O688       Ni695   1.979       .  S
O688        C698   1.297       .  A
O689       Ni695   1.880       .  S
O689        C699   1.269       .  A
O690       Ni695   1.871       .  S
O690        C700   1.269       .  A
O691       Ni696   1.974       .  S
O691        C700   1.296   1_455  A
O692       Ni696   1.982       .  S
O692        C699   1.297   1_455  A
O693       Ni696   1.875       .  S
O693        C698   1.268   1_455  A
O694       Ni696   1.857       .  S
O694        C697   1.264       .  A
Ni695      Ni696   2.376   1_655  S
C697        C929   1.483       .  S
C698        C940   1.502       .  S
C699        C996   1.496       .  S
C700        C912   1.500   1_655  S
O701       Ni709   1.953       .  S
O701        C711   1.291       .  A
O702       Ni709   1.961       .  S
O702        C712   1.293       .  A
O703       Ni709   1.906       .  S
O703        C713   1.278       .  A
O704       Ni709   1.897       .  S
O704        C714   1.274       .  A
O705       Ni710   1.964       .  S
O705        C714   1.294       .  A
O706       Ni710   1.983       .  S
O706        C713   1.296       .  A
O707       Ni710   1.896       .  S
O707        C712   1.274       .  A
O708       Ni710   1.867       .  S
O708        C711   1.268       .  A
Ni709      Ni710   2.379       .  S
C711        C968   1.469       .  S
C712        C982   1.498       .  S
C713        C898   1.526       .  S
C714        C884   1.498       .  S
O715       Ni723   1.943       .  S
O715        C725   1.287       .  A
O716       Ni723   1.950       .  S
O716        C726   1.289       .  A
O717       Ni723   1.908       .  S
O717        C727   1.278       .  A
O718       Ni723   1.898       .  S
O718        C728   1.275       .  A
O720       Ni724   1.978       .  S
O720        C727   1.295       .  A
O721       Ni724   1.906       .  S
O721        C726   1.276       .  A
O722       Ni724   1.875       .  S
O722        C725   1.270       .  A
Ni723      Ni724   2.383       .  S
C725        C926   1.461       .  S
C726        C943   1.489       .  S
C727        C901   1.513       .  S
C728        C870   1.499       .  S
O729       Ni737   1.957       .  S
O729        C739   1.292       .  A
O730       Ni737   1.957       .  S
O730        C740   1.291       .  A
O731       Ni737   1.892       .  S
O731        C741   1.274       .  A
O732       Ni737   1.876       .  S
O732        C742   1.270       .  A
O733       Ni738   1.966       .  S
O733        C742   1.294       .  A
O734       Ni738   1.980       .  S
O734        C741   1.296       .  A
O735       Ni738   1.891       .  S
O735        C740   1.272       .  A
O736       Ni738   1.854       .  S
O736        C739   1.266       .  A
Ni737      Ni738   2.379       .  S
C739        C828   1.470       .  S
C740        C845   1.492       .  S
C741        C859   1.517       .  S
C742        C915   1.498       .  S
O743       Ni751   1.968       .  S
O743        C753   1.295   1_545  A
O744       Ni751   1.971       .  S
O744        C754   1.296   1_545  A
O745       Ni751   1.890       .  S
O745        C755   1.270       .  A
O746       Ni751   1.875       .  S
O746       C1092   1.269   1_545  A
O747       Ni752   1.984       .  S
O747        C756   1.298       .  A
O748      Ni1088   1.977       .  S
O748        C755   1.296   1_565  A
O749       Ni752   1.873       .  S
O749       C1090   1.269       .  A
O750       Ni752   1.849       .  S
O750       C1089   1.262       .  A
Ni751     Ni1088   2.380   1_545  S
Ni752      O1084   1.984       .  S
Ni752     Ni1087   2.376       .  S
C753       O1086   1.264       .  A
C753       C1136   1.481       .  S
C754       O1085   1.269       .  A
C754       C1150   1.498       .  S
C755        C856   1.493       .  S
C756       O1082   1.268       .  A
C756        C887   1.500       .  S
O757       Ni765   1.953       .  S
O757        C767   1.292       .  A
O758       Ni765   1.955       .  S
O758        C768   1.292       .  A
O759       Ni765   1.884       .  S
O759        C769   1.273       .  A
O760       Ni765   1.878       .  S
O760        C770   1.269       .  A
O761       Ni766   1.963       .  S
O761        C770   1.293       .  A
O762       Ni766   1.988       .  S
O762        C769   1.297       .  A
O763       Ni766   1.896       .  S
O763        C768   1.274       .  A
O764       Ni766   1.866       .  S
O764        C767   1.266       .  A
Ni765      Ni766   2.377       .  S
C767        C803   1.463       .  S
C768        C817   1.499       .  S
C769        C786   1.513       .  S
C770        C957   1.480       .  S
O771       Ni779   1.964       .  S
O771        C781   1.293       .  A
O772       Ni779   1.974       .  S
O772        C782   1.296       .  A
O773       Ni779   1.904       .  S
O773        C783   1.274       .  A
O774       Ni779   1.886       .  S
O774        C784   1.272       .  A
O775       Ni780   1.967       .  S
O775        C784   1.295   1_455  A
O776       Ni780   1.970   1_655  S
O776        C783   1.293       .  A
O777       Ni780   1.872       .  S
O777        C782   1.267   1_455  A
O778       Ni780   1.851       .  S
O778        C781   1.266   1_455  A
Ni779      Ni780   2.379   1_655  S
C781        C831   1.483       .  S
C782        C842   1.502       .  S
C783        C789   1.495       .  S
C784        C873   1.502       .  S
C785        C786   1.416       .  A
C785        C790   1.402       .  A
C785        H792   1.084       .  S
C786        C787   1.413       .  A
C787        C788   1.423       .  A
C787        N794   1.428       .  S
C788        C789   1.416       .  A
C788        H793   1.084       .  S
C789        C790   1.402       .  A
C790        N791   1.429       .  S
N791        O795   1.261       .  A
N791        O796   1.262       .  A
N794        O798   1.262       .  A
N794        O797   1.262       .  A
C799        C800   1.399       .  A
C799        H806   1.084       .  S
C800       C1089   1.485       .  S
C800        C801   1.428       .  A
C801        N808   1.431       .  S
C802        C803   1.394       .  A
C802        H807   1.084       .  S
C803        C804   1.419       .  A
C804        N805   1.430       .  S
N805        O809   1.262       .  A
N805        O810   1.262       .  A
N808        O812   1.261       .  A
N808       O1147   1.262       .  A
O811       N1144   1.262       .  A
C813       C1150   1.420       .  A
C813       C1154   1.409       .  A
C813        H820   1.084       .  S
C814       C1090   1.504       .  S
C814       C1149   1.418       .  A
C814        C815   1.408       .  A
C815        C816   1.412       .  A
C815        N822   1.429       .  S
C816        C817   1.418       .  A
C816        H821   1.083       .  S
C817        C818   1.404       .  A
C818       C1149   1.401       .  A
C818       N1155   1.429       .  S
N819       C1154   1.428       .  S
N819        O823   1.262       .  A
N819        O824   1.262       .  A
N822        O826   1.262       .  A
N822        O825   1.262       .  A
C827       C1168   1.402   1_445  A
C827        H834   1.084   1_455  S
C828       C1165   1.397   1_545  A
C829       C1164   1.400       .  A
C829        C830   1.394       .  A
C829        N836   1.429       .  S
C830        H835   1.084       .  S
C831        C832   1.400       .  A
C832       C1163   1.399       .  A
C832        N833   1.428       .  S
N833        O837   1.262       .  A
N833        O838   1.262       .  A
N836        O840   1.262       .  A
N836        O839   1.262       .  A
C841        C842   1.401       .  A
C841        C846   1.408       .  A
C841        H848   1.084       .  S
C843        C844   1.407       .  A
C843        N850   1.430       .  S
C844        C845   1.397       .  A
C844        H849   1.084       .  S
C846        N847   1.429       .  S
N847        O851   1.262       .  A
N847        O852   1.261       .  A
N850        O854   1.262       .  A
N850        O853   1.262       .  A
C855        C856   1.414       .  A
C855        C860   1.420       .  A
C855        H862   1.084       .  S
C856        C857   1.405       .  A
C857        C858   1.405       .  A
C857        N864   1.431       .  S
C858        C859   1.418       .  A
C858        H863   1.083       .  S
C859        C860   1.415       .  A
C860        N861   1.428       .  S
N861        O865   1.262       .  A
N861        O866   1.262       .  A
N864        O868   1.262       .  A
N864        O867   1.262       .  A
C869        C870   1.417       .  A
C869        C874   1.409   1_556  A
C869        H876   1.083       .  S
C871        C872   1.407   1_556  A
C871        N878   1.429       .  S
C872        C873   1.417       .  A
C872        H877   1.083       .  S
C874        N875   1.430       .  S
N875        O879   1.262       .  A
N875        O880   1.262       .  A
N878        O882   1.262       .  A
N878        O881   1.262       .  A
C883        C884   1.416       .  A
C883        C888   1.411       .  A
C883        H890   1.083       .  S
C884        C885   1.405       .  A
C885       C1222   1.405       .  A
C885       N1228   1.429       .  S
C886       C1221   1.407       .  A
C886       C1223   1.418       .  A
C886        H891   1.084   1_565  S
C887       C1222   1.417       .  A
C887        C888   1.407       .  A
C888        N889   1.428       .  S
N889        O893   1.262       .  A
N889        O894   1.262       .  A
N892       C1221   1.428   1_545  S
N892        O896   1.262       .  A
N892       O1231   1.262       .  A
O895       N1228   1.262       .  A
C897        C898   1.413       .  A
C897        C902   1.407       .  A
C897        H904   1.083       .  S
C898        C899   1.425       .  A
C899        C900   1.429       .  A
C899        N906   1.433       .  S
C900        C901   1.414       .  A
C900        H905   1.084       .  S
C901        C902   1.412       .  A
C902        N903   1.433       .  S
N903        O907   1.262       .  A
N903        O908   1.262       .  A
N906        O910   1.262       .  A
N906        O909   1.262       .  A
C911        C912   1.418   1_655  A
C911        C916   1.402   1_556  A
C911        H918   1.083       .  S
C913        C914   1.402   1_556  A
C913        N920   1.430       .  S
C914        C915   1.419       .  A
C914        H919   1.083       .  S
C916        N917   1.428       .  S
N917        O921   1.262       .  A
N917        O922   1.262       .  A
N920        O924   1.262       .  A
N920        O923   1.262       .  A
C925        C926   1.391       .  A
C925       C1266   1.391       .  A
C925        H932   1.085       .  S
C927        C928   1.412       .  A
C927        N934   1.434       .  S
C928       C1265   1.401       .  A
C928        H933   1.083       .  S
C929       C1264   1.399   1_545  A
C930       C1261   1.394       .  A
C930        N931   1.432   1_565  S
N931        O935   1.262       .  A
N931        O936   1.262       .  A
N934        O938   1.262       .  A
N934        O937   1.263   1_655  A
C939        C940   1.402       .  A
C939        C944   1.411       .  A
C939        H946   1.084       .  S
C941        C942   1.406       .  A
C941        N948   1.430       .  S
C942        C943   1.396       .  A
C942        H947   1.084       .  S
C944        N945   1.428       .  S
N945        O949   1.262       .  A
N945        O950   1.262       .  A
N948        O952   1.262       .  A
N948        O951   1.262       .  A
C953        C954   1.399       .  A
C953        C958   1.401       .  A
C953        H960   1.084       .  S
C954        C955   1.418       .  A
C955        C956   1.407       .  A
C955        N962   1.430       .  S
C956        C957   1.398       .  A
C956        H961   1.084       .  S
C957        C958   1.417       .  A
C958        N959   1.430       .  S
N959        O963   1.261       .  A
N959        O964   1.262       .  A
N962        O966   1.262       .  A
N962       O1301   1.262       .  A
O965       N1298   1.262       .  A
C967        C972   1.395   1_455  A
C967        H974   1.084       .  S
C968        C969   1.420       .  A
C969       N1312   1.437       .  S
C970       C1307   1.394   1_545  A
C970        H975   1.083       .  S
C971       C1019   1.489       .  S
C971       C1306   1.397       .  A
C971        C972   1.428       .  A
C972        N973   1.431       .  S
N973        O977   1.262       .  A
N973        O978   1.262       .  A
N976       C1305   1.439       .  S
N976        O980   1.263   1_565  A
N976        O979   1.263       .  A
C981        C982   1.414       .  A
C981       C1322   1.409       .  A
C981       H1324   1.084       .  S
C982        C983   1.404       .  A
C983        C984   1.406       .  A
C983        N990   1.429       .  S
C984        C985   1.419       .  A
C984        H989   1.083       .  S
C985       C1020   1.506       .  S
C985       C1322   1.410       .  A
C986       C1317   1.410   1_545  A
C986       C1321   1.409   1_545  A
C986        N987   1.428       .  S
N987        O991   1.262       .  A
N987        O992   1.262       .  A
H988       C1317   1.083   1_545  S
N990        O994   1.262       .  A
N990        O993   1.262       .  A
C995        C996   1.396       .  A
C995       C1000   1.410       .  A
C995       H1002   1.084       .  S
C996        C997   1.424       .  A
C997        C998   1.412       .  A
C997       N1004   1.430       .  S
C998        C999   1.399       .  A
C998       H1003   1.083   1_545  S
C999       C1000   1.424       .  A
C1000      N1001   1.427       .  S
N1001      O1005   1.262       .  A
N1001      O1006   1.261       .  A
N1004      O1008   1.261   1_545  A
N1004      O1007   1.262       .  A
O1009     Ni1017   1.967       .  S
O1009      C1019   1.295       .  A
O1010     Ni1017   1.966       .  S
O1010      C1020   1.294       .  A
O1011     Ni1017   1.899       .  S
O1011      C1021   1.274       .  A
O1012     Ni1017   1.867       .  S
O1013     Ni1018   1.962       .  S
O1013      C1022   1.294       .  A
O1014      C1021   1.294       .  A
O1015     Ni1018   1.885       .  S
O1016     Ni1018   1.852       .  S
C1021      C1335   1.503       .  S
C1022      C1290   1.480       .  S
O1023     Ni1031   1.972       .  S
O1023      C1033   1.294       .  A
O1024     Ni1031   1.974       .  S
O1024      C1034   1.296       .  A
O1025     Ni1031   1.889       .  S
O1025      C1035   1.270       .  A
O1026     Ni1031   1.874       .  S
O1026      C1036   1.269       .  A
O1027     Ni1032   1.971       .  S
O1027      C1036   1.296   1_455  A
O1028     Ni1032   1.978   1_655  S
O1028      C1035   1.296       .  A
O1029     Ni1032   1.883   1_655  S
O1029      C1034   1.269       .  A
O1030     Ni1032   1.859       .  S
O1030      C1033   1.265   1_455  A
Ni1031    Ni1032   2.376   1_655  S
C1033      C1265   1.478       .  S
C1034      C1276   1.501       .  S
C1035      C1332   1.498       .  S
C1036      C1248   1.497       .  S
O1037     Ni1045   1.956       .  S
O1037      C1047   1.292       .  A
O1038     Ni1045   1.960       .  S
O1038      C1048   1.293       .  A
O1039     Ni1045   1.894       .  S
O1039      C1049   1.275       .  A
O1040     Ni1045   1.880       .  S
O1040      C1050   1.270       .  A
O1041     Ni1046   1.971       .  S
O1041      C1050   1.296       .  A
O1042     Ni1046   1.982       .  S
O1042      C1049   1.296       .  A
O1043     Ni1046   1.898       .  S
O1043      C1048   1.274       .  A
O1044     Ni1046   1.861       .  S
O1044      C1047   1.267       .  A
Ni1045    Ni1046   2.379       .  S
C1047      C1304   1.474       .  S
C1048      C1318   1.503       .  S
C1049      C1234   1.512       .  S
C1050      C1220   1.499       .  S
O1051     Ni1059   1.952       .  S
O1051      C1061   1.290       .  A
O1052     Ni1059   1.957       .  S
O1052      C1062   1.290       .  A
O1053     Ni1059   1.893       .  S
O1053      C1063   1.275       .  A
O1054     Ni1059   1.879       .  S
O1054      C1064   1.271       .  A
O1056     Ni1060   1.980       .  S
O1056      C1063   1.295       .  A
O1057     Ni1060   1.903       .  S
O1057      C1062   1.274       .  A
O1058     Ni1060   1.868       .  S
O1058      C1061   1.269       .  A
Ni1059    Ni1060   2.381       .  S
C1061      C1262   1.467       .  S
C1062      C1279   1.488       .  S
C1063      C1237   1.515       .  S
C1064      C1206   1.496       .  S
O1065     Ni1073   1.953       .  S
O1065      C1075   1.292       .  A
O1066     Ni1073   1.952       .  S
O1066      C1076   1.292       .  A
O1067     Ni1073   1.891       .  S
O1067      C1077   1.272       .  A
O1068     Ni1073   1.878       .  S
O1068      C1078   1.270       .  A
O1069     Ni1074   1.976       .  S
O1069      C1078   1.297       .  A
O1070     Ni1074   1.982       .  S
O1070      C1077   1.297       .  A
O1071     Ni1074   1.890       .  S
O1071      C1076   1.271       .  A
O1072     Ni1074   1.858       .  S
O1072      C1075   1.267       .  A
Ni1073    Ni1074   2.379       .  S
C1075      C1164   1.479       .  S
C1076      C1181   1.492       .  S
C1077      C1195   1.506       .  S
C1078      C1251   1.502       .  S
O1079     Ni1087   1.973       .  S
O1079      C1089   1.296       .  A
O1080     Ni1087   1.974       .  S
O1080      C1090   1.296       .  A
O1081     Ni1087   1.897       .  S
O1081      C1091   1.274       .  A
O1082     Ni1087   1.871       .  S
O1083     Ni1088   1.974       .  S
O1083      C1092   1.296       .  A
O1084      C1091   1.296       .  A
O1085     Ni1088   1.877       .  S
O1086     Ni1088   1.851       .  S
C1091      C1192   1.509       .  S
C1092      C1223   1.498       .  S
O1093     Ni1101   1.965       .  S
O1093      C1103   1.296       .  A
O1094     Ni1101   1.968       .  S
O1094      C1104   1.294       .  A
O1095     Ni1101   1.891       .  S
O1095      C1105   1.271       .  A
O1096     Ni1101   1.867       .  S
O1096      C1106   1.267       .  A
O1097     Ni1102   1.979       .  S
O1097      C1106   1.296   1_545  A
O1098     Ni1102   1.984   1_565  S
O1098      C1105   1.298       .  A
O1099     Ni1102   1.878       .  S
O1099      C1104   1.269   1_545  A
O1100     Ni1102   1.849       .  S
O1100      C1103   1.262   1_545  A
Ni1101    Ni1102   2.382   1_565  S
C1103      C1139   1.483       .  S
C1104      C1153   1.487       .  S
C1105      C1122   1.506       .  S
C1106      C1293   1.484       .  S
O1107     Ni1115   1.964       .  S
O1107      C1117   1.294   1_655  A
O1108     Ni1115   1.972       .  S
O1108      C1118   1.295       .  A
O1109     Ni1115   1.893       .  S
O1109      C1119   1.272       .  A
O1110     Ni1115   1.868       .  S
O1110      C1120   1.268   1_655  A
O1111     Ni1116   1.972       .  S
O1111      C1120   1.296       .  A
O1112     Ni1116   1.980       .  S
O1112      C1119   1.297   1_455  A
O1113     Ni1116   1.882       .  S
O1113      C1118   1.270   1_455  A
O1114     Ni1116   1.853       .  S
O1114      C1117   1.266       .  A
Ni1115    Ni1116   2.379   1_655  S
C1117      C1167   1.484       .  S
C1118      C1178   1.496       .  S
C1119      C1125   1.505       .  S
C1120      C1209   1.497       .  S
C1121      C1122   1.399       .  A
C1121      C1126   1.414       .  A
C1121      H1128   1.083       .  S
C1122      C1123   1.425       .  A
C1123      C1124   1.412       .  A
C1123      N1130   1.428       .  S
C1124      C1125   1.397       .  A
C1124      H1129   1.083       .  S
C1125      C1126   1.426       .  A
C1126      N1127   1.429       .  S
N1127      O1131   1.262       .  A
N1127      O1132   1.262       .  A
N1130      O1134   1.261       .  A
N1130      O1133   1.262       .  A
C1135      C1136   1.399       .  A
C1135      H1142   1.069   1_565  S
C1136      C1137   1.423       .  A
C1137      N1144   1.433       .  S
C1138      C1139   1.392       .  A
C1138      H1143   1.084       .  S
C1139      C1140   1.430   1_565  A
C1140      N1141   1.432       .  S
N1141      O1145   1.262       .  A
N1141      O1146   1.262       .  A
N1144      O1148   1.262       .  A
C1149      H1156   1.083       .  S
C1150      C1151   1.407   1_565  A
C1151      C1152   1.404       .  A
C1151      N1158   1.428       .  S
C1152      C1153   1.412   1_545  A
C1152      H1157   1.084       .  S
C1153      C1154   1.401       .  A
N1155      O1159   1.262       .  A
N1155      O1160   1.262       .  A
N1158      O1162   1.262       .  A
N1158      O1161   1.262       .  A
C1163      H1170   1.084       .  S
C1165      C1166   1.392       .  A
C1165      N1172   1.429   1_565  S
C1166      H1171   1.083       .  S
C1167      C1168   1.404   1_455  A
C1168      N1169   1.428       .  S
N1169      O1173   1.262       .  A
N1169      O1174   1.262       .  A
N1172      O1176   1.262       .  A
N1172      O1175   1.262       .  A
C1177      C1178   1.399       .  A
C1177      C1182   1.413       .  A
C1177      H1184   1.083       .  S
C1179      C1180   1.397       .  A
C1179      N1186   1.429       .  S
C1180      C1181   1.395       .  A
C1180      H1185   1.084       .  S
C1182      N1183   1.430       .  S
N1183      O1187   1.262       .  A
N1183      O1188   1.262       .  A
N1186      O1190   1.261       .  A
N1186      O1189   1.262       .  A
C1191      C1192   1.407       .  A
C1191      C1196   1.406       .  A
C1191      H1198   1.084       .  S
C1192      C1193   1.418       .  A
C1193      C1194   1.423       .  A
C1193      N1200   1.427       .  S
C1194      C1195   1.410       .  A
C1194      H1199   1.084       .  S
C1195      C1196   1.417       .  A
C1196      N1197   1.432       .  S
N1197      O1201   1.262       .  A
N1197      O1202   1.262       .  A
N1200      O1204   1.262       .  A
N1200      O1203   1.262       .  A
C1205      C1206   1.419       .  A
C1205      C1210   1.405   1_556  A
C1205      H1212   1.083       .  S
C1207      C1208   1.403   1_556  A
C1207      N1214   1.431       .  S
C1208      C1209   1.417   1_655  A
C1208      H1213   1.083       .  S
C1210      N1211   1.430       .  S
N1211      O1215   1.262       .  A
N1211      O1216   1.262       .  A
N1214      O1218   1.262       .  A
N1214      O1217   1.262       .  A
C1219      C1220   1.418       .  A
C1219      C1224   1.405       .  A
C1219      H1226   1.083       .  S
C1220      C1221   1.404       .  A
C1222      H1227   1.084       .  S
C1223      C1224   1.405       .  A
C1224      N1225   1.428       .  S
N1225      O1229   1.262       .  A
N1225      O1230   1.262       .  A
N1228      O1232   1.262       .  A
C1233      C1234   1.406       .  A
C1233      C1238   1.402       .  A
C1233      H1240   1.084       .  S
C1234      C1235   1.419       .  A
C1235      C1236   1.426       .  A
C1235      N1242   1.428       .  S
C1236      C1237   1.415       .  A
C1236      H1241   1.083       .  S
C1237      C1238   1.419       .  A
C1238      N1239   1.433       .  S
N1239      O1243   1.262       .  A
N1239      O1244   1.262       .  A
N1242      O1246   1.261       .  A
N1242      O1245   1.262       .  A
C1247      C1248   1.417       .  A
C1247      C1252   1.405   1_556  A
C1247      H1254   1.084       .  S
C1249      C1250   1.405   1_556  A
C1249      N1256   1.430       .  S
C1250      C1251   1.419       .  A
C1250      H1255   1.083       .  S
C1252      N1253   1.429       .  S
N1253      O1257   1.262       .  A
N1253      O1258   1.262       .  A
N1256      O1260   1.262       .  A
N1256      O1259   1.262       .  A
C1261      C1262   1.390       .  A
C1261      H1268   1.085       .  S
C1263      C1264   1.410       .  A
C1263      N1270   1.435       .  S
C1264      H1269   1.083   1_465  S
C1266      N1267   1.433       .  S
N1267      O1271   1.262       .  A
N1267      O1272   1.262       .  A
N1270      O1274   1.262   1_455  A
N1270      O1273   1.263       .  A
C1275      C1276   1.402       .  A
C1275      C1280   1.409       .  A
C1275      H1282   1.084       .  S
C1277      C1278   1.412       .  A
C1277      N1284   1.429       .  S
C1278      C1279   1.401       .  A
C1278      H1283   1.084       .  S
C1280      N1281   1.428       .  S
N1281      O1285   1.262       .  A
N1281      O1286   1.262       .  A
N1284      O1288   1.262       .  A
N1284      O1287   1.262       .  A
C1289      C1290   1.395       .  A
C1289      C1294   1.396       .  A
C1289      H1296   1.081       .  S
C1290      C1291   1.418       .  A
C1291      C1292   1.416       .  A
C1291      N1298   1.430   1_565  S
C1292      C1293   1.404       .  A
C1292      H1297   1.083   1_565  S
C1293      C1294   1.415       .  A
C1294      N1295   1.431       .  S
N1295      O1299   1.262       .  A
N1295      O1300   1.262       .  A
N1298      O1302   1.262   1_545  A
C1303      C1308   1.394   1_455  A
C1303      H1310   1.084       .  S
C1304      C1305   1.422       .  A
C1306      H1311   1.083       .  S
C1307      C1308   1.426       .  A
C1308      N1309   1.431       .  S
N1309      O1313   1.261       .  A
N1309      O1314   1.262       .  A
N1312      O1316   1.262       .  A
N1312      O1315   1.263       .  A
C1317      C1318   1.417       .  A
C1318      C1319   1.406       .  A
C1319      C1320   1.405       .  A
C1319      N1326   1.429       .  S
C1320      C1321   1.418       .  A
C1320      H1325   1.083       .  S
C1322      N1323   1.428       .  S
N1323      O1327   1.262       .  A
N1323      O1328   1.262       .  A
N1326      O1330   1.262       .  A
N1326      O1329   1.262       .  A
C1331      C1332   1.399       .  A
C1331      C1336   1.412       .  A
C1331      H1338   1.084       .  S
C1332      C1333   1.425       .  A
C1333      C1334   1.409       .  A
C1333      N1340   1.431       .  S
C1334      C1335   1.398       .  A
C1334      H1339   1.084       .  S
C1335      C1336   1.425       .  A
C1336      N1337   1.429       .  S
N1337      O1341   1.262       .  A
N1337      O1342   1.262       .  A
N1340      O1344   1.262       .  A
N1340      O1343   1.262       .  A
